27
orca.xyz
  O   11.98497722124526      7.55802106200931     13.07447484528362
  Fe  13.15880933336048      7.67511361704469     11.89125644869370
  N   14.72202841081056      7.82739844295660     10.20252501728080
  O   12.10457067866870      8.41326857682929     10.29742660294415
  O   14.64191921010189      8.96854470892249     12.66723168243575
  O   13.91146709082530      5.71205708948029     11.65539284003775
  C   14.21138827150526      8.86462387420302      9.31064116821259
  H   14.54845379881483      9.86137719394351      9.65014630173326
  H   14.58419710518850      8.76638850148989      8.27547466040246
  C   12.70338633789644      8.92870252830842      9.33999779836825
  C   15.97660185184196      8.19974634786307     10.84907820510708
  H   16.54045299517524      7.29972083512976     11.16231135896878
  H   16.67446521471151      8.74963248437564     10.19084090301922
  C   15.73802906961564      8.95554616860031     12.11682191737512
  C   14.75283143820318      6.50039060196624      9.55602603795209
  H   13.85511138729710      6.44487756174262      8.90320211532522
  C   14.44890823330478      5.44591073893560     10.58531433762264
  H   14.68803420540825      4.38661422403901     10.34588413168798
  H   16.59280271530239      9.49089626442657     12.58628137653333
  C   15.96647237370223      6.19025884994928      8.69814903146105
  H   16.88735220075920      6.09511883836963      9.29142541457744
  H   15.81218850592283      5.23858898954225      8.16666614581188
  H   16.11486288427318      6.96992925402183      7.93719355229537
  C   11.98432625663564      9.61231404701662      8.25743264993636
  H   12.55938497869931     10.46525569847935      7.86164344077949
  H   11.88645351668606      8.89350053715671      7.41842738374360
  H   10.97397715122212      9.90788193800404      8.57330499955929
