27
orca.xyz
  O   12.32055403259943      7.51782799779194     13.41994430900625
  Fe  13.32705004677002      7.62393217323959     12.09097027856521
  N   14.76560867970023      7.76880462468939     10.28791819525526
  O   12.19330304813530      8.58493851450945     10.58162877479761
  O   14.84838342231688      8.82152141601347     12.76044910936044
  O   13.88689018529954      5.63252071221060     11.67276289730246
  C   14.28160895802453      8.87858043375422      9.47376513461877
  H   14.75642706749071      9.83235576709165      9.77698887195268
  H   14.52719971333271      8.77685242718351      8.39946543357765
  C   12.81287744883086      9.09589407646058      9.65467807408173
  C   16.07005967351625      8.02684845635401     10.89111651129808
  H   16.53853073076617      7.07366928334526     11.19677232650268
  H   16.78860552125363      8.49997597449983     10.19980399399484
  C   15.94103940959283      8.81639994626422     12.17171790038353
  C   14.68174829258155      6.47749786742581      9.57646550656833
  H   13.75786940016992      6.51062368819453      8.95929112969550
  C   14.34882803006289      5.39202401030631     10.56194704826609
  H   12.27997146441311      9.76195139894826      8.94050614237385
  H   14.49148325005093      4.33396302297053     10.25091181368691
  C   15.83803192426451      6.13593304296011      8.65335965016285
  H   16.77375095370662      5.95933173152151      9.20276377944482
  H   15.60379020702861      5.22176619145721      8.08650617690140
  H   16.00217692822764      6.94055404387547      7.92205084232214
  C   17.10821565013198      9.53150030372463     12.70331356081252
  H   16.98961501271814      9.75168237811747     13.77340796856881
  H   18.04496338448022      8.98864575218183     12.49537452415980
  H   17.18737033396339     10.49365045855241     12.15732659257253
