24
orca.xyz
  O   -2.36213828024084      1.52630739228827      1.88597504419901
  Fe  -2.43249908729637      1.56242942503058      0.24012124610155
  P   -3.50710659242572      3.67557524796574      0.66955945426110
  H   -2.65558691266470      4.53624276273806      1.40460172199812
  H   -4.03315899629514      4.53629428976524     -0.33035932168005
  N   -2.52607470356846      1.73982982089879     -1.84334025746707
  H   -2.28196718557680      0.84376100623864     -2.28147892579258
  N   -0.38655230228140      1.37081138416561      0.24664261621591
  H   -0.16229528684943      0.63470391492263      0.92506690390789
  N   -3.73452511889387     -0.09280667669102      0.26312129563771
  H   -3.22767417302698     -0.96068434463046      0.47368807809870
  H   -4.37364425809031      0.02914069470384      1.05694559819684
  H   0.00420711066485      1.06346395499483     -0.64955522705703
  H   -4.60160738700583      3.51281448222471      1.55288791178185
  H   -4.31616370038379     -0.29463792067900     -0.55623134921817
  H   -3.50855982429646      1.87795662677388     -2.10487098218782
  C   0.24783761788573      2.62675357482769      0.67794728880974
  H   1.34709019242814      2.53073512169366      0.68177033902872
  H   -0.02574846738258      3.44112870575195     -0.00844498425243
  H   -0.09220027942479      2.86597037132486      1.69484471417854
  C   -1.72670956592836      2.80529989577188     -2.47664572176354
  H   -0.65541537840047      2.61098103283559     -2.33198508718992
  H   -1.92057377520628      2.86476489740523     -3.56001186973196
  H   -1.97284477351125      3.77606245475904     -2.02327363751855
