25
orca.xyz
  O   12.16690422632622      7.05467199414822     13.15954710167636
  Fe  13.26295968561214      7.31382583169287     11.92517835995023
  N   14.75953886340494      7.67578869808659     10.18833226592016
  O   12.19035356149221      8.47466074299713     10.49918625064618
  O   14.84437513637772      8.46892452333179     12.77999549926124
  O   13.94161536074097      5.49241614881618     11.49618324242440
  C   14.29588226847940      8.83841468304617      9.44587612884984
  H   14.77972305123220      9.76752619477046      9.80551060957055
  H   14.54836114499094      8.79904326547556      8.36810883557530
  C   12.82826246444212      9.05968281084120      9.63147325159706
  C   16.05722268031601      7.86760744139190     10.81869791086403
  H   16.55887501453132      6.89368837350722     10.98788840954777
  H   16.77115532178057      8.45701639763112     10.21331139639111
  C   15.91626502110236      8.46283044623127     12.18813847950357
  C   14.66269000675034      6.41756344587747      9.38151128547760
  H   13.67246892177594      6.46155579581171      8.89095035482827
  C   14.51481170916656      5.27682647842241     10.39633545098567
  H   12.31498824628031      9.79774777708881      8.97592930061682
  H   16.82073796396125      8.88230436369244     12.68205950468448
  N   15.62519553317344      6.14962645242641      8.39825708905234
  H   15.47838009566236      6.56547398385282      7.48381199929337
  H   16.60048282215449      6.18635481748239      8.68068269885391
  N   14.94809991167676      4.09474636013918     10.03165903314340
  H   15.37188548967145      4.00321477826651      9.10765184068428
  H   14.80719329947600      3.27589162187902     10.62268570561969
