48
orca.xyz
O 	7.469119	23.095758	5.945423
Fe 	6.414863	22.161949	4.923320
N 	6.047870	20.471746	6.118377
C 	5.832039	19.271350	5.279757
C 	4.779518	19.492523	4.206675
N 	5.159642	21.097100	3.456582
C 	3.749999	22.161453	3.096121
C 	4.330118	23.557514	3.218519
N 	5.091853	23.747379	4.477021
C 	6.193802	20.861503	1.991613
C 	7.596602	20.655863	2.524623
N 	7.950732	21.660762	3.551384
C 	9.205002	21.259295	4.202592
C 	8.154030	22.969744	2.915686
H 	4.801563	18.686785	3.467262
H 	2.959442	21.971319	3.826468
H 	3.769021	19.529006	4.622133
H 	6.117405	21.757683	1.369703
H 	5.865164	20.009434	1.388748
H 	8.334214	20.693965	1.713415
H 	7.679046	19.671081	2.987873
H 	8.942944	22.901361	2.156713
H 	7.232318	23.292114	2.431126
H 	8.445760	23.690779	3.679037
H 	10.019480	21.247991	3.468757
H 	9.434030	21.967300	4.998232
H 	9.095950	20.255273	4.612941
H 	5.023334	23.744565	2.394648
H 	3.542035	24.318294	3.159088
C 	4.165985	23.798920	5.618909
H 	4.740248	23.948254	6.532374
H 	3.467762	24.634926	5.493762
H 	3.599820	22.873427	5.688190
C 	5.782838	25.047436	4.401622
H 	6.358889	25.198013	5.312036
H 	6.452773	25.062413	3.544086
H 	5.552098	18.430284	5.926736
H 	6.792144	19.025236	4.824091
C 	4.844429	20.732523	6.918562
F 	3.900294	20.911020	6.199711
F 	4.617216	19.794457	7.631589
F 	5.023054	21.706121	7.596943
C 	7.163851	20.205867	7.042406
F 	6.936513	19.323790	7.652188
F 	8.076156	20.027985	6.477380
F 	7.307539	21.070421	7.686613
Br 	4.490283	26.439977	4.206097
Br 	3.026596	21.862470	1.353882
