27
orca.xyz
  O   11.98163086125321      7.59467575353656     13.11264959834846
  Fe  13.12194043407743      7.69395425418870     11.89563116533978
  N   14.66508121639234      7.87553277488186     10.18952908010085
  O   12.03441826625732      8.40944883501594     10.31363707389244
  O   14.59580482769277      9.01577970055157     12.62896442962933
  O   13.77119723006795      5.70584078096966     11.55390208409552
  C   14.12774276259196      8.92677620868065      9.32995324608852
  H   14.42711876421188      9.91811736785704      9.71599433003975
  H   14.50871948208544      8.88607664653825      8.29495974287228
  C   12.61804866976397      8.94524674936364      9.35819494742157
  C   15.95404653880003      8.22216838976684     10.82167880776734
  H   16.37552135820024      7.27781984579417     11.22928631738984
  C   15.69236533385654      9.00400146217805     12.07886460090669
  C   14.70439081893740      6.56964125874133      9.53962603451033
  H   13.97094165105104      6.51443364546649      8.71136436735380
  H   15.67735100733278      6.34387892835207      9.06311359570087
  C   14.31798109737980      5.47342898617976     10.48097338796423
  H   14.51086033982925      4.41964903351933     10.18095455761042
  H   16.53833891216374      9.55656687248203     12.54318948906575
  C   11.88041815015614      9.61491623497874      8.27950560136622
  H   12.42326860635546     10.49888069189071      7.90612832126942
  H   11.82502902511025      8.90981483203034      7.42519542808566
  H   10.85548459089773      9.86246840032808      8.58909637713516
  C   17.00601697130945      8.84267601285600      9.91953498724624
  H   17.95696642397600      8.93524922852458     10.46636672168522
  H   17.19354994533927      8.20371819024845      9.04444780299721
  H   16.71994644298561      9.84566743192773      9.57201224793240
