27
orca.xyz
  O   11.94836736462008      7.48432468150397     12.97395839242632
  Fe  13.12723149145103      7.67473091649529     11.80541435297081
  N   14.66604191733229      7.83210807399733     10.10331903882376
  O   12.09875635143474      8.63455144143139     10.32005351410691
  O   14.67216696070059      8.87058116860049     12.62506303647444
  O   13.94256845774311      5.72451784593826     11.58841449909665
  C   14.19630845224695      8.92724490149388      9.25965936722312
  H   14.60850827383802      9.88178677275947      9.63645898642735
  H   14.54108828677627      8.85899749866602      8.21394678515740
  C   12.70291956304318      9.11382266949857      9.34733725747801
  C   15.94329082117287      8.14319186366997     10.74531488234371
  H   16.50066792020756      7.21795735240732     10.99215629735901
  H   16.63433434274639      8.71285177259062     10.09456567709816
  C   15.75761115015143      8.83999498829264     12.05533724534565
  C   14.68591574476504      6.50329216939734      9.45837337979581
  H   15.64708551046794      6.33255178592628      8.93587814514752
  C   14.50678589387426      5.46434179572850     10.53048927805370
  H   14.83457122987565      4.42155627600327     10.32750328085250
  H   16.64253056478037      9.31443824026125     12.53457118778420
  C   12.00552470742965      9.88699671707780      8.31210784127309
  H   12.63193016639839     10.70745071768927      7.92561163398862
  H   11.82855846340017      9.20664353506854      7.45502139161144
  H   11.03148367374138     10.24788222352507      8.67071873893982
  C   13.55542500943228      6.24745854782547      8.46435103425354
  H   13.65331214692439      6.89712862863768      7.58346182748507
  H   13.61934901782995      5.21203479268428      8.09397507081518
  H   12.56531286361981      6.37840153618629      8.92412165398477
