53
orca.xyz
  O   8.04761489751580     22.71978308629927      9.41430453186159
  Fe  8.05882134585855     21.41736168324789      8.37123362112442
  P   7.89423994846083     19.84801950798305     10.13491885621564
  C   7.55563797416406     18.10924932154390      9.69932795398331
  C   6.44317774541193     17.80158414747290      8.70351554420628
  C   5.64081175689271     19.93378959466020      7.71183917968126
  C   5.35383718907902     20.98685854312981      6.62360878579701
  P   6.34623498740389     22.42257743035464      7.21311423628219
  C   7.61611237892066     18.57216698036457      6.53680633669967
  C   8.97135236559713     19.09901703613328      6.96374849610127
  N   9.17014850011766     20.56101647630376      6.91674255572210
  C   10.51882474937966     20.89320264082453      7.40413989450811
  C   8.95596061479552     21.10540679883508      5.57199307500539
  H   6.55270981398403     16.73785077220208      8.43779962905224
  H   4.68980133500396     19.66546351511980      8.19827769847590
  H   6.18095273617900     20.44482103876832      8.55462628195355
  H   5.47302832216873     17.87228742873895      9.22146576650687
  H   7.37697482334098     18.99765253837975      5.55411947976942
  H   7.79239620835516     17.50003768248326      6.34867005938760
  H   9.72567117421357     18.65441939003043      6.28673399898667
  H   9.24976749734503     18.77816562450062      7.97518380710940
  H   9.64406357716670     20.62246392545093      4.85582596353309
  H   7.91318970766305     20.92640807628445      5.26699217793002
  H   9.16513942417420     22.18320943639470      5.58627680645972
  H   11.28961318579690     20.40983974242057      6.77791575273497
  H   10.67323415322282     21.98220210113633      7.37115835966385
  H   10.64009668674596     20.53722342004315      8.43913907771557
  H   4.30750791614384     21.34169907900694      6.73770992999644
  C   5.21731823306336     23.23452800494016      8.44971215035174
  H   5.83432003290997     24.03363859565916      8.90065503252665
  H   5.05016836087190     22.48991851592391      9.24296817305718
  C   6.57520795298825     23.64175160938138      5.91277899560699
  H   7.20698648910400     24.46461287603855      6.28252917231376
  H   7.03971091157109     23.18808892817945      5.02775504373377
  H   5.57673397266802     24.02845601567389      5.64883203354904
  H   7.33868923552352     17.60954837878885     10.66100577905125
  H   8.51837327762703     17.68982755605709      9.36763615686547
  C   6.57851713102775     20.38450990989570     11.25205270448738
  H   5.60057073266031     20.30649992119624     10.75655868611632
  H   6.57597124262278     19.74986920270923     12.15271745206629
  H   6.76403551404439     21.43195742979997     11.52985593426538
  C   9.39604586727469     19.80070327666148     11.13804824657758
  H   9.23105485410508     19.15558774128873     12.01678657580367
  H   10.23550230849411     19.39703747165948     10.55291426549394
  H   9.63850966149056     20.82030390373087     11.47004304843945
  C   6.35384483306814     18.61766855069008      7.40666440889413
  H   5.62275357697640     18.05878754568844      6.79467203025932
  N   4.02172235484512     23.64260478807197      7.81283121115961
  H   3.97080782991565     24.63218683154690      7.59036094921383
  H   3.16497432657651     23.33606815320893      8.26267988083980
  N   5.68240349796038     20.59582158302041      5.27912013123094
  H   5.22215379683865     19.71316813437820      5.05377448536772
  H   5.30081910585913     21.27300044816680      4.61870574436715
