29
orca.xyz
  O   12.79660858812932      7.68055642430291     12.95087107752976
  Fe  13.53463469616865      7.63168528489904     11.48668328468377
  O   14.67874485879252      7.27133346389767      9.78395792185377
  O   12.44089722974105      9.16551900581849     10.64765728324444
  O   15.16303572202355      8.52267166872884     12.30428940726574
  O   12.56563843103219      5.89724807007211     11.11050597478855
  H   15.09064572931425      8.61935526650007     13.26775545987487
  H   12.08760313118225      5.57092885742408     11.89018404536493
  H   11.54277791146570      9.20089823131629     11.01816394685881
  C   12.95692308442093     10.50941965523584     10.55933364857338
  H   13.92446079822511     10.45234129781162     10.04396925587300
  H   12.26245920818275     11.11775985056090      9.95766517916265
  H   13.07918322821104     10.94623809905157     11.56378637320619
  C   16.42780926169714      9.01674797880280     11.83030145263204
  H   17.23308334202683      8.31426561903435     12.09861724929387
  H   16.35460447972884      9.11111605381872     10.74094050242665
  H   16.61865672931877     10.00671381538252     12.27461437537485
  C   12.58104724037053      4.90724164140669     10.06701434412641
  H   13.32102835226109      4.12383507360792     10.29722773303090
  H   11.57457509813376      4.46803559091832      9.97868156519563
  H   12.83599709989185      5.41638050515225      9.13084861921754
  C   15.76654702089006      6.34448250965017      9.85715087423788
  H   15.55545109934623      5.46485399084399      9.22793238197795
  H   16.69806626945845      6.82594653468851      9.51853969357169
  H   15.87364594592042      6.03228952612087     10.90615567822236
  C   14.43411972796629      7.76469047308675      8.46142523285863
  H   15.27044197278582      8.40900397051270      8.14283529033452
  H   14.33480742946790      6.92061514192730      7.75975138123707
  H   13.49798532294662      8.33603673670841      8.48752352260364
