51
orca.xyz
  O   8.30643953781134     22.24898139816769      9.85410825703473
  Fe  8.10758353984002     21.18172393701730      8.59265735035555
  P   7.83011648912042     19.56802316603865     10.25998533954226
  C   7.37136653627170     17.90587156197076      9.67738884484432
  C   6.24610620569496     17.79595516160853      8.65632553050107
  C   5.66396873341306     20.06096544119761      7.78960300524677
  C   5.46332971595596     21.18505577761201      6.74863299574657
  P   6.61705269091395     22.52505700520797      7.31086351288767
  C   7.55105316761883     18.58118289010569      6.57443466749718
  C   8.94925361248869     18.90452396871886      7.06369334835337
  N   9.29774345003136     20.33378534848868      7.17714070008189
  C   10.66615156358206     20.48336246480983      7.69720511215086
  C   9.16614526607503     21.02341882647292      5.88995346521054
  H   6.24076063051124     16.74838495923250      8.31479629943749
  H   4.68154063454711     19.83937332516320      8.23451333576343
  H   6.17126685630599     20.50027861502780      8.69226267675167
  H   5.28196349311879     17.93927082862097      9.17008317084749
  H   7.38761756467882     19.10489235079161      5.62395660711852
  H   7.60493342133605     17.51375713549662      6.30284184073444
  H   9.66207605914862     18.45582728040092      6.34586390771269
  H   9.17569949377820     18.44918995995575      8.03462534074163
  H   9.83807668847022     20.56161637001082      5.14443677763724
  H   8.12663686768371     20.95222809811333      5.53554069178265
  H   9.45375049842214     22.07590950698842      6.01372860629178
  H   11.39397173631834     20.03050367646677      7.00144823026509
  H   10.90676143959359     21.55012672776765      7.81548991158682
  H   10.75220831323923     19.98446715960377      8.67158371946487
  H   4.44132640120692     21.59575315021525      6.88868728312901
  C   5.63238654713255     23.61356154624291      8.38861704919131
  H   6.30030177293751     24.38507390124778      8.80013943030313
  H   4.84000825945050     24.09600003508100      7.79293861577258
  C   7.01521191541754     23.62306598074705      5.92988475213933
  H   7.77080414559214     24.35721492053780      6.25079969817835
  H   7.40510529567394     23.04734544009356      5.08080628576082
  H   6.10397328147995     24.16162293573676      5.62131925076568
  H   7.09311433626335     17.35742521563723     10.59613700377168
  H   8.29405693661940     17.42402568087309      9.32123248944906
  C   6.56103439031588     20.06783278987011     11.43205152463155
  H   5.57437027196257     20.04710198716853     10.95087150948508
  H   6.57183366175235     19.36282377504351     12.27910963039528
  H   6.77816554090120     21.08815230828552     11.77686401966624
  C   9.35348111825257     19.38861557454389     11.20566719005402
  H   9.16497417949761     18.72437901138107     12.06548976561602
  H   10.15121575751515     18.95240746932739     10.58811741352990
  H   9.66078688261844     20.38252911135347     11.56437609975687
  C   6.27640918417712     18.70647197983838      7.42115200482992
  H   5.51291501020743     18.26233221133193      6.75693203961759
  Br  4.80680341063354     22.69551074085883      9.84015801835907
  N   5.76767196155308     20.80422262456388      5.39579104501402
  H   5.28393603353832     19.93790978124203      5.15871227539480
  H   5.41069025735311     21.50099492684169      4.74248481179624
