27
orca.xyz
  O   12.29250979380622      7.08032265172991     13.23685096320412
  Fe  13.26825117106267      7.36852878950121     11.91165365553878
  N   14.73548460072750      7.70024802232526     10.17231023510465
  O   12.12677664195899      8.43334142179667     10.47953041135882
  O   14.72328969364094      8.73414238936994     12.64225237639270
  O   13.72033955433919      5.46917630405548     11.30005740926310
  C   14.22549430887494      8.85490757985053      9.43271763315478
  H   14.66364180593811      9.79790031363234      9.81540344338084
  H   14.49675449240286      8.84333334479974      8.35949800950633
  C   12.74912877451461      9.02181795850358      9.60197031039383
  C   16.04227158081716      7.98476542527398     10.79969339691479
  H   16.69273876103626      8.55993364078108     10.11259339001099
  C   15.79369013643485      8.78954681056969     12.04525712987920
  C   14.67785535599805      6.47444231573488      9.38118911687887
  H   13.86711722619607      6.55949222866760      8.63386514477433
  H   15.59162158525787      6.28460066190153      8.79294732363067
  C   14.28611798790636      5.27876937098010     10.21169408181763
  H   12.21357337418426      9.72652463711122      8.92787227393087
  H   16.62493872369404      9.39492115669746     12.46786278599789
  C   14.54172525626506      3.92547846682857      9.70270326807990
  H   14.44242431453176      3.87771391673441      8.60596925879114
  H   15.60039772528477      3.68367452326258      9.92519601007437
  H   13.90670870365562      3.18263735701950     10.20520630311489
  C   16.81916236252809      6.75645310128837     11.26804105214852
  H   17.74092624559999      7.07783580668562     11.77837324570363
  H   16.23928161884354      6.14707541424554     11.97604389479715
  H   17.13724621430415      6.14417131300106     10.41273490081306
