27
orca.xyz
  O   12.04195106207203      7.31741458171738     13.05915133226132
  Fe  13.16485141915560      7.51412845346117     11.83924968997585
  N   14.68738459879497      7.77356043216995     10.12090332634740
  O   12.08489383117213      8.40141694851683     10.32748207673279
  O   14.71725223537851      8.71082471303669     12.66733458484473
  O   13.82515584474647      5.60005281733065     11.44145226348037
  C   14.17469872263758      8.88048508831431      9.31786510164694
  H   14.53648089411568      9.84248543608502      9.72538107055543
  H   14.52431690786097      8.85319371539225      8.26968066141330
  C   12.66863969268585      8.96885660164525      9.39154835175412
  C   15.97218831245114      8.06692471130943     10.74797371235445
  H   16.53320042144216      7.13362319524890     10.95109268961078
  H   16.64917291532551      8.66686721533132     10.10949607459626
  C   15.79637236493399      8.71381563288313     12.08570843330603
  C   14.66808052890687      6.49498655181857      9.41619013384664
  H   13.84279482016967      6.48464355163178      8.68059043848330
  H   15.58769972642108      6.30734841482920      8.83256205782101
  C   14.36764346202303      5.34907467063522     10.35475488876395
  H   16.68123096672216      9.18186871953204     12.57127155830019
  C   14.69913198350962      3.97608027960369      9.95116701361377
  H   14.12513995443856      3.23958372551580     10.53053932740551
  H   14.57677074233161      3.83165530052980      8.86515943685604
  H   15.77685741071333      3.81778570990587     10.15916530368353
  C   11.93842441716706      9.73945335466250      8.37617568478317
  H   12.51850447459005     10.61124545994547      8.03199027972660
  H   11.81370618947395      9.08626708031368      7.48868754452137
  H   10.93962082581720     10.02571814896547      8.73412101420512
