27
orca.xyz
  O   12.33723391620929      7.46943266001671     13.46898985838551
  Fe  13.27126966344361      7.63892055881276     12.09324932327872
  N   14.65318742819119      7.90766514918550     10.26584152249504
  O   12.08279254679450      8.68285051452589     10.68488752792227
  O   14.82323276314354      8.78059980663679     12.76454871602307
  O   13.66874220491688      5.66589151742939     11.44822712654250
  C   14.14904727960058      9.08812006568632      9.57060367458096
  H   14.60750997958760     10.00821744443008      9.98219481014051
  H   14.39207493930113      9.11251774470824      8.49224733611839
  C   12.67952726932931      9.26710546018163      9.78673512985025
  C   16.01251868633926      8.08084142603668     10.82400714526398
  H   16.34703683449798      7.07082305984274     11.13849627360292
  C   15.90734266708395      8.80505984866420     12.15888409678123
  C   14.53310958082643      6.68572154278548      9.47616468827440
  H   13.74830944760871      6.78503718379945      8.70063183835478
  H   15.44951474417779      6.43627945692461      8.90828192368902
  C   14.11147602792147      5.52186462788894     10.31352928874357
  H   12.12628928048041      9.97575537925338      9.13148514064822
  H   14.17786679070003      4.50073653787904      9.87693548770947
  C   17.07906703032818      9.46648198635126     12.74685704143984
  H   16.86670478863381      9.81314939678284     13.76664877511699
  H   17.94560848978361      8.78145218296606     12.73815591548144
  H   17.37598676861358     10.31949929043870     12.10918241332528
  C   17.03958465050535      8.63539521176850      9.85639653010610
  H   18.05010021073337      8.55212622462119     10.27972268577829
  H   17.03978689691894      8.06078053564599      8.91863091615046
  H   16.86039303796316      9.69327602722981      9.61696529647671
