54
orca.xyz
  O   7.48128697028815     23.12997238018044      5.95549216860462
  Fe  6.41571926022126     22.18848955159294      4.97400607352241
  N   6.08870343714812     20.48830517984745      6.22664791513083
  C   5.90436690930975     19.29242402132163      5.37659873469880
  C   4.83728762818470     19.48527671524627      4.31276290276243
  P   5.15642004590820     21.09453281411897      3.52116331015322
  C   3.67867072487733     22.08709604461755      3.12860903715685
  C   4.12067401795666     23.55627373895600      3.32471594477471
  N   5.02637088798445     23.74056808508906      4.52317186470919
  C   6.22353969234651     20.79892972197745      2.07854822268012
  C   7.61529231759832     20.58594542546354      2.63768105066569
  N   7.98419461558466     21.60479474508239      3.64551416691247
  C   9.21884713598008     21.20456936777456      4.32952854236148
  C   8.18794279865337     22.91229340135023      3.01030567710724
  H   4.86695787254667     18.66760424198347      3.57529644810834
  H   3.49734608788836     21.95437895959828      2.04923897520799
  H   3.82540524586476     19.49326467117959      4.74250191907826
  H   6.16828570612432     21.67346916094790      1.41522755971981
  H   5.88681199061882     19.92544954570415      1.49684368455359
  H   8.36697730151376     20.58529111998739      1.82797790051749
  H   7.67960698886362     19.60268748520662      3.12332764232609
  H   8.93611896232770     22.84030643752565      2.20152180847516
  H   7.24150515914638     23.26405783491927      2.58381871003912
  H   8.53371716981701     23.62682041693371      3.76790597904972
  H   10.06102620981983     21.19099989090806      3.61663157117925
  H   9.42786022513448     21.91862525298805      5.13586061202523
  H   9.10335158634534     20.19512275445906      4.74243619003911
  H   3.21262010257069     24.14285111478537      3.55340002704708
  C   4.20723622454953     23.73512273980305      5.74569833457405
  H   4.86008964624034     23.83845833867998      6.62061203006600
  H   3.49807647933273     24.58056958681171      5.73370421700482
  H   3.63746752325201     22.80718431516490      5.81145560446334
  C   5.73032661464781     25.03372808940344      4.47532385547646
  H   6.27497848061571     25.16720238249435      5.41594852370029
  H   6.45113450518495     25.05944854947573      3.65367825054004
  H   5.00315827617589     25.85338810488447      4.35042197610478
  H   5.65568592287182     18.42600377371259      6.01620153250651
  H   6.87541946795838     19.07390450676687      4.91349905976522
  C   4.88496125519009     20.72348341284725      7.03062306434959
  H   4.01671084131678     20.86960852181488      6.37969741445678
  H   4.69019396955808     19.85775696647377      7.68748784292274
  H   5.02741871050842     21.61275923821748      7.65448595629529
  C   7.22604776616948     20.27516446217423      7.13582114996744
  H   7.04176397191173     19.39070775764749      7.76917534613735
  H   8.14309798400639     20.11853586396141      6.56038770757864
  H   7.35582269633489     21.15769978978308      7.77070530469448
  C   2.41980207086738     21.62578656664065      3.84552550720337
  H   1.61042343393030     22.34800385898911      3.65819959062225
  H   2.08748185987490     20.65308626368031      3.45402845861970
  H   2.52835080284322     21.53090218825572      4.93408512885656
  C   4.69542803748018     24.11147232005739      2.03884093416819
  H   5.62914001995407     23.61738438607788      1.74152402639843
  H   3.96603764458538     23.94473571897113      1.23330796184345
  H   4.87391322194981     25.19246520891568      2.08540582566296
