21
orca.xyz
O 	-2.721647	1.654540	1.886679
Fe 	-2.765897	1.820129	0.171990
O 	-3.773392	3.703458	0.248380
H 	-3.128515	4.493492	0.216934
N 	-2.678296	2.033049	-2.061035
H 	-2.288011	2.920551	-2.376856
H 	-2.110516	1.322330	-2.521801
O 	-0.638635	1.786482	0.169942
H 	0.093719	2.385997	0.227899
H 	-0.273510	0.836169	0.103647
O 	-3.845545	-0.005022	-0.096213
H 	-3.336647	-0.749968	-0.170935
H 	-4.855325	0.132913	-0.049075
C 	-4.035126	1.944913	-2.740479
H 	-4.777180	2.528560	-2.158507
H 	-3.961511	2.357881	-3.767374
H 	-4.355941	0.884041	-2.790932
C 	-5.028948	4.430669	-0.132071
H 	-4.895986	5.516273	0.051677
H 	-5.243330	4.260064	-1.206971
H 	-5.875149	4.052942	0.477999
