53
orca.xyz
  O   6.01805461567542     23.09465979024273      7.09929879260059
  Fe  6.39281022447678     22.50217470389081      5.51107623928220
  P   6.06616775592449     20.29761612991214      6.00286964975077
  C   5.70026203395961     18.93276148576153      4.77656713527647
  C   4.66414342279630     19.26387150636965      3.69896192708926
  C   4.30394297848862     21.72587980017238      3.63569340450769
  C   4.51229248941259     23.12852135416590      3.07936278374915
  P   5.08612135201042     24.06911391019664      4.52258949969145
  C   5.99807321357901     20.68508628822346      1.97210779846810
  C   7.34424891507333     20.82625775261668      2.65236279682116
  P   7.68289156020984     22.26789497340564      3.68084679342305
  C   9.28452313925581     21.89077917052182      4.45186665239101
  C   8.07951402657283     23.64416255162750      2.57108722581933
  H   4.62982761153077     18.37675037933321      3.04306193438001
  H   3.25584194897263     21.59285079865570      3.94577956451425
  H   4.83928969650069     21.65215822213381      4.62584121517328
  H   3.68065578023279     19.27976032475893      4.19533396318129
  H   5.83741532677866     21.51024976091417      1.25908038093853
  H   6.07047662066696     19.78882402117012      1.33325827693954
  H   8.14883357012092     20.82126088958429      1.89536738752533
  H   7.51975642876124     19.95984809271730      3.32437041634120
  H   8.88329029062644     23.31669229668578      1.89175016015364
  H   7.21512284306611     23.94634196659696      1.96519853196468
  H   8.43921145706683     24.50407277498149      3.15491199784010
  H   10.04679236334717     21.74205890399777      3.66902571587844
  H   9.60323199599365     22.72125082218159      5.10155656829252
  H   9.19432788350723     20.97148581173822      5.04663972815984
  H   5.31016875594532     23.15092967664456      2.32508721622715
  H   3.60717023028886     23.55857749509735      2.62164863744198
  C   3.63977805002743     24.30216605905480      5.57446821177050
  H   3.95936017430823     24.81132676943641      6.49565371974809
  H   2.88587812612673     24.90843537777847      5.04629427668825
  H   3.20984152882867     23.32908827636728      5.84813025091257
  C   5.64080454108132     25.72436565092345      4.08989664525020
  H   5.97316248791633     26.23250766772432      5.00904778077923
  H   6.46503643409743     25.70098577020879      3.36779901771593
  H   4.79035995665148     26.28074635281854      3.66168525142839
  H   5.18368286557404     18.21949269951972      5.45644515952886
  C   4.46010964165361     20.33228275026726      7.03339617503226
  H   3.70086969810439     20.79016484898832      6.37985450725809
  H   4.20118822993415     19.26420739034550      7.14478039472055
  C   7.24743026094433     19.54886843625132      7.14791832416415
  H   6.87847062253783     18.56445943449396      7.48059070085473
  H   8.23184464121640     19.43385748177375      6.67298532170461
  H   7.35320162122234     20.21248281004101      8.01673751308773
  C   4.74248508976758     20.51884587985254      2.82099962189284
  H   3.93675865010215     20.37391608534634      2.07805269185558
  N   6.92441209805333     18.38197360633503      4.26671745692289
  H   7.39917146274024     17.80297821021299      4.95652892402060
  H   6.74303189494670     17.79060223669334      3.45580273292548
  N   4.52652531472605     20.96952157047670      8.27274242378315
  H   4.74167234121725     21.96537889237553      8.22733024533022
  H   5.04817457578645     20.48727720109069      8.99751206529077
