24
orca.xyz
  O   -0.79399985106473     -0.53886980137447     -1.66943191419146
  P   1.80428143128802      0.05871497898511      1.41862140702126
  O   -0.67043502850657      1.91231218105533     -0.15601518579872
  O   -1.34110137141005     -0.44035639668423      1.32830891177844
  H   3.01743570095556     -0.62874636031337      1.16798902949443
  H   1.44249160005125     -0.47740740803250      2.67799873710998
  H   -0.35381249079178      2.68433837641325      0.33480416798841
  H   -1.20961749493056      2.25485879546273     -0.88418101874363
  H   -2.13635840639861      0.11822889335126      1.41136328946089
  Fe  0.15536671316440     -0.06269218926911     -0.31794234336943
  H   2.31064271662132      1.33239662684470      1.79838527753849
  P   1.86755289030704      0.74501157672095     -1.94264611208852
  H   3.02909990581882      1.50729808524787     -1.64356160465182
  H   2.45076906288825     -0.31640323611662     -2.68177541917784
  H   1.32186954776479      1.50805354912025     -3.00501146129373
  P   0.45956108926983     -2.37045919749567     -0.22585666224306
  H   1.56466987663779     -2.57773157576453     -1.09842195013921
  H   -0.53519804010974     -3.14721499838212     -0.87721117534524
  N   -1.68402715246959     -1.79009813450671      1.24239959839079
  H   -2.43346258644092     -1.90466676192881      0.55018719434389
  H   -2.04596481969499     -2.08624200876275      2.15686523844205
  N   1.07794551814708     -3.03664512872672      1.17719538404264
  H   1.72326999806334     -3.82117505090872      1.08094502577322
  H   0.39956019055656     -3.18808374955998      1.92012790744050
