18
orca.xyz
O 	-2.721647	1.654540	1.886679
Fe 	-2.765897	1.820129	0.171990
O 	-3.773392	3.703458	0.248380
O 	-2.678296	2.033049	-2.061035
H 	-2.288011	2.920551	-2.376856
O 	-0.638635	1.786482	0.169942
H 	-0.273510	0.836169	0.103647
O 	-3.845545	-0.005022	-0.096213
H 	-3.620433	-0.622368	0.682929
H 	-4.855325	0.132913	-0.049075
H 	-4.247470	3.777468	1.147155
H 	-3.588546	1.973922	-2.516850
N 	-2.837962	4.849446	0.202766
H 	-2.599659	5.382314	-0.633742
H 	-2.331800	5.228616	1.002970
N 	-0.184032	2.288886	1.485741
H 	0.585568	1.900146	2.030789
H 	-0.591835	3.077464	1.987875
