23
orca.xyz
O 	0.756832	-0.094084	-2.061053
O 	-0.238836	-2.120085	-0.309586
O 	0.485919	2.062496	-0.200924
N 	2.297340	-0.417550	0.274162
O 	-1.854486	0.318962	-0.520471
H 	-0.492834	-2.637902	0.462413
H 	-0.035497	-2.738101	-1.020813
H 	0.405419	2.599317	0.595282
H 	2.893232	-0.504720	-0.547411
H 	2.414293	-1.277586	0.806236
H 	-2.412370	-0.354572	-0.927318
Fe 	0.305880	-0.056731	-0.402263
H 	2.693274	0.332393	0.837479
N 	0.150770	-0.080509	1.731976
H 	-0.896152	-0.093850	2.055837
H 	0.639254	-0.964380	2.157727
H 	0.622442	0.803401	2.176201
N 	-2.314356	1.611769	-1.075061
H 	-1.876009	2.516357	-0.901703
H 	-3.118692	1.736064	-1.689790
N 	1.097981	2.907838	-1.250294
H 	0.706195	3.779247	-1.607547
H 	1.976878	2.709196	-1.728184
