25
orca.xyz
O 	0.882468	-0.111712	-1.958836
P 	2.654419	-0.524648	0.250793
O 	-0.325595	-0.145245	1.777377
H 	3.102476	-0.679045	1.584253
H 	0.171524	-0.274087	2.591687
H 	-1.246328	-0.013911	2.030838
Fe 	0.276552	-0.112640	-0.354377
H 	3.533273	0.474537	-0.218846
P 	0.749563	2.280375	-0.801747
H 	1.179653	2.477274	-2.119417
H 	-0.390005	3.070147	-0.607718
P 	-0.324538	-2.436148	-0.353860
H 	-0.442307	-2.932472	-1.657621
H 	0.636050	-3.211005	0.307099
H 	-1.550344	-2.645390	0.289273
P 	-2.072918	0.327155	-0.570185
H 	-2.454720	0.409375	-1.914605
H 	-2.837452	-0.683904	0.024161
H 	-2.423546	1.536210	0.042389
N 	2.043884	2.912395	0.294329
H 	2.343484	3.885740	0.351947
H 	2.586567	2.350337	0.949985
N 	3.352347	-2.002136	-0.527682
H 	4.192566	-2.022250	-1.105703
H 	2.966307	-2.943501	-0.456255
