53
orca.xyz
  O   5.98802396378095     23.01328258991612      7.19076176596630
  Fe  6.16832810877629     22.48407926251988      5.51491285028232
  P   6.00745358281172     20.30464681033551      6.03957511464493
  C   5.64902146994094     19.02480902652357      4.78278033112580
  C   4.54565929376266     19.27029826134097      3.75840419187154
  C   4.20228544887143     21.74428096341260      3.63623730848635
  C   4.45431383329481     23.11769028040117      3.01420359476598
  P   5.10827752244630     24.14469046687882      4.43805035017936
  C   5.86587565828514     20.62062144747825      1.99631974338886
  C   7.23296517521654     20.73048763526796      2.64948569611054
  P   7.57142130938995     22.09779493433984      3.80188987841337
  C   9.14142015732785     21.63231318551334      4.58306610824769
  C   8.05325206473673     23.49130619150807      2.74494429888109
  H   4.51913617517863     18.37337997360811      3.11840649797260
  H   3.13849072945543     21.66589610889227      3.91275301835797
  H   4.68734826399892     21.67313039811707      4.65167919019164
  H   3.57422479124979     19.28066657637377      4.27962473002491
  H   5.73308117745979     21.45009557559836      1.28308758159555
  H   5.90374392061947     19.72222150350958      1.35804421201456
  H   8.00540076429707     20.83366397013160      1.86687214073921
  H   7.49452662007856     19.81982160882048      3.20155003945730
  H   8.90919814985303     23.18795428774333      2.12103528760415
  H   7.23123406078746     23.79698874694577      2.08479683915751
  H   8.35073344544931     24.34100175169764      3.37612547094247
  H   9.92821487874374     21.55299217478680      3.81530343330286
  H   9.43862642585215     22.39699885244489      5.31724952181522
  H   9.02827855208633     20.66496507076288      5.08961299138394
  H   5.32158916717833     23.04593797074967      2.34029801435647
  C   3.66920426118247     24.45449325177481      5.49163532790721
  H   3.99802203855132     25.00539819670195      6.38558685635966
  H   2.91857711942064     25.05012560888952      4.94778319128581
  H   3.22465213268294     23.50423815670939      5.82089571525027
  C   5.61379145901181     25.77373365975478      3.85550587214022
  H   5.95718995672092     26.37472651831784      4.71208594956265
  H   6.41821661074000     25.71173082075004      3.11300245566163
  H   4.73696905856889     26.26853818365971      3.40657593182420
  H   5.36434811694992     18.14859040886087      5.39424193254290
  H   6.59935229680417     18.73963439339932      4.31133650174781
  C   4.43095338686181     20.26778786047382      7.10881287837835
  H   3.64374380622152     20.70562483186851      6.47218856804322
  H   4.21071571033648     19.18847702519040      7.19606027888039
  C   7.29656781953425     19.59587286367671      7.10352296947683
  H   7.60694561424470     18.60767723148900      6.73225395362904
  H   8.16988324503941     20.25716879056086      7.16050264653731
  H   6.89128809821374     19.48273051473459      8.12050753660744
  C   4.60972512870623     20.50272321812082      2.85361325879507
  H   3.79913934007525     20.36210365682637      2.11755825641935
  N   4.47844089215219     20.87903397243929      8.36434810188333
  H   4.69732985504655     21.87388771321537      8.33582796413936
  H   5.01011664641855     20.38798998823126      9.07591644478672
  N   3.34587160636775     23.57444035316038      2.27220836456475
  H   2.50570684287450     23.75478922590142      2.81492211119133
  H   3.53034004206134     24.33255460790906      1.62187295740152
