53
orca.xyz
  O   5.65601535035283     22.91185421280120      7.40924660746815
  Fe  6.41539949953675     22.47986637934943      5.90196359115351
  P   5.89231106373693     20.27447248984696      6.18763180870123
  C   5.77032214149109     19.05417133969691      4.84028794396924
  C   4.75792148251641     19.24860183062719      3.71562281892043
  C   4.30745528692994     21.69626868035015      3.71600983375691
  C   4.58721279031327     23.11638208090746      3.24003612834512
  P   5.05675014036952     24.01213346869946      4.74615886409808
  C   6.04990996451636     20.74721724292471      2.06404503982236
  C   7.38696798655572     20.80791004917250      2.77290252483988
  P   7.77491861643917     22.03943966813005      4.06501063406341
  C   9.36779610077566     21.40431623381907      4.66082782992603
  C   8.24923086263226     23.53579305545572      3.15397814490556
  H   4.87140577398905     18.38054757969290      3.04571721120445
  H   3.23687007450019     21.57468607408199      3.94072316640728
  H   4.79077760735814     21.58352180984901      4.71950151230373
  H   3.74771703960511     19.15001943587013      4.14668779373765
  H   5.92584874747870     21.63824937962476      1.42827102161174
  H   6.13252484545973     19.91395905428886      1.34661080153396
  H   8.18058410362915     20.99137386065880      2.02638832319059
  H   7.64014410084408     19.84098541927629      3.22577999099155
  H   9.09481722760223     23.29106247510029      2.49123483583689
  H   7.41663062229058     23.90370862591827      2.54084483954364
  H   8.56168726340971     24.32252629494959      3.85459020158297
  H   9.97789367849533     21.11772262495293      3.78927685178448
  H   9.90008095751232     22.17847541693626      5.22841310274493
  H   9.21196021799957     20.52435951013425      5.29929676736754
  H   5.44403679705931     23.15388586614283      2.55375852804517
  H   3.73437643419512     23.58804468554059      2.72575564231630
  C   3.53459246687347     24.20121193297737      5.69466578344390
  H   3.76876193271671     24.71625252888368      6.63772016541953
  H   2.80324324063748     24.78445115236794      5.11230112525394
  H   3.11912339786551     23.21365954073888      5.93569006513850
  C   5.61101428729127     25.68881672973789      4.38584468962232
  H   5.85585691815411     26.18818312293516      5.33666621879001
  H   6.49633085866149     25.69227761119242      3.73798673246758
  H   4.79313003133586     26.24148700978076      3.89408414754771
  H   5.46943095885068     18.15833482312661      5.41463977917492
  H   6.78859704890858     18.85249133625870      4.48187261835310
  C   4.15106070735806     20.10205829390361      7.14855434895193
  H   3.46540773147949     20.59774507641357      6.44239027671681
  C   7.02747016991709     19.54108481184266      7.38761552337654
  H   6.62331124940503     18.56717849026518      7.70910049520703
  H   8.02216104671269     19.38338816063656      6.94774920491937
  H   7.11913253052975     20.22014023716185      8.24798884910173
  C   4.77702797473681     20.52312299634754      2.86859532257256
  H   3.99727129321808     20.37043937901566      2.10145857019298
  N   4.19959541289251     20.78470878004941      8.36655279550977
  H   4.51996751206459     21.75514744326215      8.28335719200954
  H   4.69153590905327     20.29689504534598      9.11201567560532
  N   3.91920067417878     18.71903855257734      7.21282141407234
  H   4.03289617266338     18.30585236118618      8.13360772458014
  H   3.05359326703048     18.40648338760147      6.78472021283615
