54
orca.xyz
O 	7.423755	23.108993	5.974270
Fe 	6.369500	22.175185	4.952166
N 	6.002506	20.484981	6.147224
C 	5.786675	19.284585	5.308603
C 	4.734154	19.505758	4.235521
P 	5.114278	21.110335	3.485428
C 	3.704635	22.174689	3.124967
C 	4.284754	23.570749	3.247365
N 	5.046489	23.760615	4.505867
C 	6.148438	20.874738	2.020459
C 	7.551238	20.669099	2.553469
P 	7.905368	21.673997	3.580230
C 	9.159638	21.272531	4.231438
C 	8.108666	22.982979	2.944532
H 	4.756200	18.700021	3.496108
H 	3.290166	22.003388	2.126762
H 	2.914078	21.984555	3.855314
H 	3.723657	19.542242	4.650979
H 	6.072041	21.770919	1.398549
H 	5.819800	20.022670	1.417594
H 	8.288850	20.707201	1.742261
H 	7.633682	19.684316	3.016719
H 	8.897580	22.914596	2.185559
H 	7.186954	23.305350	2.459972
H 	8.400396	23.704015	3.707883
H 	9.974116	21.261226	3.497603
H 	9.388666	21.980535	5.027078
H 	9.050586	20.268508	4.641787
H 	4.977970	23.757800	2.423494
H 	3.496671	24.331529	3.187935
C 	4.120621	23.812155	5.647755
H 	3.422398	24.648161	5.522608
H 	3.554456	22.886662	5.717036
C 	5.737474	25.060672	4.430468
H 	6.313525	25.211249	5.340882
H 	6.407410	25.075648	3.572932
H 	4.995809	25.859708	4.318277
H 	5.506735	18.443520	5.955583
H 	6.746780	19.038472	4.852937
C 	4.799065	20.745758	6.947409
H 	3.942725	20.907657	6.295403
H 	4.591414	19.888453	7.599048
H 	4.961062	21.628723	7.562638
C 	7.118487	20.219103	7.071252
H 	6.891149	19.337025	7.681034
H 	7.262175	21.083656	7.715459
C 	8.410100	19.967263	6.271307
H 	8.826884	20.936629	5.929842
H 	9.150295	19.452403	6.917455
H 	8.182597	19.331527	5.390966
C 	4.932513	24.023283	6.939210
H 	5.428996	23.072692	7.221804
H 	5.699821	24.806128	6.769303
H 	4.252978	24.342962	7.755883
