26
orca.xyz
  O   0.51913350039218      0.64932921117726     -2.35720126901344
  N   2.29921378801235      0.26609134781062     -0.12013215463281
  H   2.85645897399113     -0.14693599752329     -0.87225727143008
  H   2.65147447359216     -0.13189731827209      0.75336575968819
  Fe  0.14479493545380      0.18059481803275     -0.73034201448425
  H   2.55117634774872      1.26217844855500     -0.12514616686503
  P   0.06012593475264      2.49634628839928     -0.53029411705794
  H   -1.08972012427791      2.99675170655384     -1.20661001808771
  P   0.46991842042528     -2.20681076258592     -1.09439669507242
  H   -0.48934618634246     -2.86436851502884     -1.90778162638197
  H   1.65187254327682     -2.57765314242979     -1.78437756007281
  H   0.52575894873025     -3.12225201561414     -0.00980821439859
  N   -2.03893335917598     -0.06548702938464     -1.16980072156393
  H   -2.09927488128325     -0.06164379541631     -2.19214845290633
  H   -2.51807669207992     -0.91437262589131     -0.85793788966668
  H   -2.63190851837482      0.70926054459007     -0.85923598867394
  P   -0.45072288683575     -0.03772429662971      1.55232626827504
  H   -1.63110765360332      0.63258861906369      1.96183507081061
  H   -0.68129199467782     -1.32079598959882      2.11912606492300
  H   0.45931456187776      0.47669328325520      2.51117894637109
  N   -0.19576328381099      3.17484760779641      0.96942216698323
  H   0.55773719330819      3.12299860059349      1.65220728347948
  H   -0.70051297316490      4.05898486600831      1.02807212986538
  N   1.50350563266260      3.05923505416550     -1.15222689572768
  H   1.66906191794886      4.06757696100912     -1.14909448947179
  H   1.75455724633208      2.62010966036698     -2.04058947695566
