18
orca.xyz
  O   -2.55799367758932      1.39463742997907      1.23750055853493
  Fe  -2.90060849392226      1.44161656984637     -0.37566536999601
  P   -4.18102408579918      3.38389604931098      0.18984421515530
  H   -3.35604134823935      4.46302685927666      0.59685364319304
  H   -5.05682672418495      3.99632273024145     -0.74478610802204
  N   -3.22433953092901      1.61740675565912     -2.43885845674307
  H   -2.87982799129914      2.50627178459568     -2.82064976680799
  H   -2.77373166008956      0.89843356959084     -3.01646118455431
  P   -0.52923790902918      1.20085138776971     -0.47488384037042
  H   0.12690625210801      2.24434540259411      0.22371774044831
  H   -0.11854821136515      0.04187690723723      0.22818622301004
  N   -3.87201830250206     -0.46845684277799     -0.32075520467757
  H   0.19864601523892      1.12169453817156     -1.69244606301277
  H   -5.00054736356124      3.17238573985882      1.32146175182637
  H   -3.89351523270926     -1.06274079015712     -1.16507253880734
  H   -4.21894310581292      1.58771588689286     -2.69110734112793
  Cl  -5.51022182390837      0.18697584826961     -0.24040945296957
  Cl  -3.46887210917771     -1.52887606778506      0.95991084242515
