54
orca.xyz
  O   7.24205310816559     23.35898463237785      5.97038991879117
  Fe  6.16686255342424     22.32204866739200      5.08243005260276
  N   5.74464526022959     20.54736750640760      6.24760764210733
  C   5.98579266602923     19.40135821439973      5.35408126761238
  C   5.12060700781516     19.43973854133567      4.10771524621022
  P   5.24474624550689     21.13169413310361      3.44373596708933
  C   3.65856305485371     21.93939701133567      3.10557242830785
  C   3.97366993726460     23.40766909246012      3.30656748675099
  N   4.59048088548277     23.68703085449645      4.62444414756501
  C   6.22491508657652     21.03969655375145      1.91459509414458
  C   7.63658027690086     20.72936610375150      2.37437072001579
  P   7.99768463871687     21.83434047543982      3.79173454810227
  C   9.47828357325708     21.17331286776569      4.57900852064722
  C   8.48487316615569     23.40871589581734      3.05297981350437
  H   5.47180122851727     18.70796121918491      3.36390231396723
  H   3.30227806811521     21.73661754133456      2.08254316057702
  H   2.89344251283385     21.56764452158927      3.80341138181727
  H   4.06652895707258     19.20102306377348      4.31604698757867
  H   6.16436429365405     22.01997432486339      1.41486903058884
  H   5.81119037494116     20.28299071244365      1.22733345541273
  H   8.38753112738352     20.87227882265631      1.57968734412269
  H   7.72639654827159     19.68805133293902      2.72454048592119
  H   9.39696527331780     23.27001401788646      2.45010620981575
  H   7.67770742764266     23.78784850865132      2.41046476425673
  H   8.66632551404300     24.12788042592705      3.86447200727439
  H   10.26362626412994     21.06372302491726      3.81297140444713
  H   9.81836854447435     21.87090523203732      5.35459912758472
  H   9.27790692852671     20.19155147377997      5.03073327033165
  H   4.69293236392756     23.73848457748352      2.54077296019063
  H   3.06754499996054     24.02747241204465      3.18446530418440
  C   3.57885640806157     23.60124851145738      5.68098201448226
  H   4.05422410452004     23.70669868754780      6.66331293437079
  H   2.82675492725938     24.39988326681392      5.56300062195807
  H   3.06779707273267     22.63490832481039      5.63092827718491
  C   5.18368358444968     25.05953187505857      4.55072338144851
  H   6.11410795097306     24.96049889255066      3.97135711608957
  H   4.49057151912545     25.67106367851749      3.94385772484801
  H   5.82566299078919     18.45503906847147      5.90297129533929
  H   7.04893312424241     19.43319530316349      5.07137763534949
  C   4.37933777205148     20.49177281335046      6.76841278151445
  H   3.66159488581236     20.50691517613647      5.93995005223027
  H   4.22010923921584     19.56819793722984      7.35298065353077
  H   4.18610566667343     21.35354120455930      7.41384789840810
  C   6.74157900379107     20.50690200431462      7.34701913476550
  H   6.76842731258398     19.47587191236932      7.74751852194454
  H   7.71747282120652     20.69834400284279      6.87670981845668
  C   6.48953438321749     21.48326850686200      8.46589729575460
  H   7.36520040568222     21.49119026284870      9.13051358135308
  H   6.35190453798699     22.50485460783248      8.08529041755843
  H   5.62540923382328     21.20033760178329      9.08336140416169
  C   5.44007063848806     25.75606537025843      5.86003351122242
  H   6.08122886186730     25.15723472364824      6.51904871296108
  H   5.97084564027224     26.69546118316520      5.64168477120260
  H   4.51112867045407     26.02700576055521      6.38110688498266
