26
orca.xyz
  O   0.29927397165320     -0.67356940529699     -2.33521753908277
  N   2.22551238605408     -0.62145119021478     -0.26008639147721
  H   2.77504721297812     -0.15815002001992     -0.98760543681476
  H   2.33869559784139     -1.62985788672115     -0.43875227452114
  Fe  0.06679838122589     -0.24139173174343     -0.67377691226631
  H   2.68692507793332     -0.41613305927017      0.62880577086651
  P   0.40445790250528      2.09485840641170     -0.99803606706359
  H   1.78754690779229      2.36352627842249     -1.14581050542676
  H   -0.06995247619474      2.64067444307679     -2.23027801240363
  P   -0.20861053875885     -2.57624205072939     -0.51829468267541
  H   -1.45192235187098     -3.04185919967842     -1.04798622908199
  H   -0.19862116046580     -3.24009981054863      0.73517789927288
  N   -2.16447067157709     -0.00854379733348     -0.89657793775859
  H   -2.33309190436726     -0.27721332362746     -1.87075026382168
  H   -2.76471722460090     -0.61463279210176     -0.33065212130655
  H   -2.56310590553568      0.92873470826011     -0.79830031623675
  P   -0.13829158576059      0.15594285488889      1.64120789215963
  H   -1.30894170225461      0.81219663556920      2.10027294655483
  H   -0.12565861968310     -0.94920013402305      2.53460017390571
  H   0.85350011299311      0.97595889034246      2.23391717055902
  N   0.00913637019465      3.07447727090157      0.31148809967209
  H   0.38255940870783      4.02591010020423      0.30347243949681
  H   -0.97882709740733      3.09635796825972      0.55906035730394
  N   1.12247371997881     -3.24583068329738     -1.28556627206137
  H   1.22779756500943     -2.90017631126863     -2.24162470200658
  H   1.24315409048138     -4.25890509443216     -1.23015364360268
