22
orca.xyz
  O   -2.89352732991040      1.72578342830579      1.18144863577899
  Fe  -3.02938843814435      1.52026089864758     -0.44713590576843
  P   -3.93662218998458      3.71697146478397     -0.41434141523701
  H   -2.98955059588940      4.71875673043190     -0.08240524698673
  H   -4.58705399977333      4.29816249515676     -1.53585767385882
  N   -3.08970954508533      1.29945352112248     -2.51604336080395
  H   -2.59475785168680      2.05385525572223     -3.00326222971636
  H   -2.64280500539232      0.43731610021283     -2.84849879672160
  P   -0.63402856017774      1.85807513916463     -0.37441968403588
  H   -0.31035459897416      3.06834519276447      0.28697052239350
  H   -0.00950739711399      0.90223427678419      0.46627169327113
  N   -4.18292565267386     -0.09228970296119     -0.06286364623882
  H   -3.99971781804552     -0.28056319457975      0.94758360171728
  H   0.24631617896775      1.88720837507358     -1.49016313228849
  H   -4.89845950457717      3.88452623402708      0.60943016992659
  H   -4.03477951521490      1.30659464638625     -2.91311251996373
  N   -5.33327782984083      0.74796549427536     -0.19892546218364
  H   -5.73843779578424      0.92967997725579      0.72480547015420
  H   -6.03833717761522      0.29962597102628     -0.79119597594539
  N   -4.07782244047582     -1.24846747206528     -0.78054035828500
  H   -4.59877594485592     -2.02807107225893     -0.36673463284749
  H   -4.32487084358736     -1.12955662808645     -1.76075595786859
