53
orca.xyz
  O   6.98496527719200     23.07266445458209      6.42822713277946
  Fe  6.28744457959938     22.02630777221825      5.26641753046407
  N   5.56795777265036     20.18424700288039      5.94794708739896
  C   5.83050439884177     19.24760979298708      4.83891717618537
  C   4.98933427037506     19.35578720211720      3.57082570701827
  C   4.01512279884243     21.67926033208490      3.49512969582128
  C   4.13058912362397     23.16700132715960      3.17480533199306
  P   4.96132042317027     23.83288866653231      4.64147764624004
  C   6.18978497809216     21.11186258562269      2.06968351210530
  C   7.54576038009192     20.96249025560514      2.72100969007441
  N   7.83683686777785     21.85379103000998      3.86019652384066
  C   9.04534423125966     21.40088863524160      4.56099471046123
  C   8.03600673516429     23.23220184185070      3.39342933051757
  H   5.38131054719369     18.56480767529776      2.90984365558523
  H   2.96949482746349     21.34998158822723      3.38632522962305
  H   4.17926533629330     21.57024273013531      4.58863582343919
  H   3.96212687090193     19.03348138030752      3.80680704639035
  H   6.06663032231635     22.13470428967050      1.68396059427189
  H   6.27821483755660     20.50351660795983      1.15514848685470
  H   8.32199573284687     21.14518960290526      1.95532150814241
  H   7.69894239703452     19.92800838362758      3.05321654463999
  H   8.92890773551146     23.29041955159841      2.74638919756529
  H   7.16388174755336     23.55225074746836      2.81146759844136
  H   8.16362651243553     23.89577438254069      4.25830421217263
  H   9.91176994036473     21.41153496147651      3.87708959358995
  H   9.24884225856203     22.06604944149892      5.40952165558727
  H   8.90800812804524     20.37216939950512      4.92197388026597
  H   4.69910357173836     23.39095744577450      2.26083963944780
  H   3.15519408738005     23.67386494648999      3.08019043936876
  C   3.57819975621471     24.03446911794979      5.89850638524969
  H   4.08899127644632     24.37535326442734      6.81644541004886
  H   3.18645615210749     23.02514806399068      6.09913389359757
  C   5.57985618481668     25.50112935908492      4.39691454387414
  H   6.12420768299697     25.81757284334243      5.29952845345005
  H   6.24663812545549     25.55691244757421      3.52627571710382
  H   4.70882131982491     26.15495912450544      4.22653692901537
  H   5.69342585054343     18.21968440852919      5.22681650588845
  H   6.90432539350579     19.32887367132770      4.61862925793800
  C   4.20135993956128     20.07761512954761      6.45817908024190
  H   3.46891444608201     20.28477487558012      5.67161147215263
  H   4.02209322551417     19.05405114886885      6.83239319981955
  H   4.08687088906072     20.78400684667569      7.29045553231793
  C   6.52447739846799     19.87185454783362      7.09264945672045
  H   6.41197350581546     18.78934609176101      7.28866019376359
  H   7.53850404957434     20.02405895517720      6.68327256303273
  C   4.89326499689281     20.65147394490931      2.75578057651955
  H   4.26690665985152     20.36914941736089      1.89360423152021
  N   6.25434034494948     20.64688721372119      8.22980558124019
  H   6.93424903955537     21.36421228089974      8.44258572373134
  H   5.99990230845095     20.12084674502960      9.05815155244285
  N   2.60869806167326     24.91991787349011      5.39054454952100
  H   2.59431625859425     25.85257943719460      5.78892267745306
  H   1.67517907178717     24.54646850889844      5.26021370419545
