53
orca.xyz
  O   8.19606425181870     22.73983242920496      9.37573203736807
  Fe  8.06458459999215     21.43747875743369      8.34873504325881
  P   7.90033442955870     19.87820655286158     10.13207636929911
  C   7.52277506444810     18.13926500719091      9.72102776937641
  C   6.40471369207086     17.82418624579996      8.73364669986087
  C   5.61957485704844     19.95898104349610      7.75961240851161
  C   5.32476085309482     21.00330893317613      6.66490781750547
  P   6.30893503567169     22.47169825734951      7.22600111555747
  C   7.58003092883766     18.57508837396857      6.58232962444950
  C   8.93751228728488     19.09645003498077      6.99957743285281
  N   9.16487361481323     20.55091380068153      6.90574286415272
  C   10.53773071405329     20.86563288941625      7.33208150849339
  C   8.89896396189875     21.07634283089271      5.56207842264721
  H   6.51253006088066     16.76097996284063      8.46410887154772
  H   4.67461125780652     19.70006417355027      8.26225193847421
  H   6.19284523968709     20.43417863193134      8.59143599592777
  H   5.43509518174410     17.89724304846284      9.25328256382297
  H   7.34591231527210     18.96955560425609      5.58645875829452
  H   7.75464128256467     17.49713845976498      6.42468556438685
  H   9.67876670899156     18.61635863761444      6.33223175389080
  H   9.21928798176202     18.79965911537557      8.01723591562845
  H   9.54377103212929     20.56777966657252      4.82338997865471
  H   7.83819159213300     20.91614924373553      5.30480038059683
  H   9.13300684262228     22.14924268215331      5.54844666155804
  H   10.70465010339164     21.95180159684554      7.28503051773641
  H   10.69688139686946     20.51730166430118      8.36391865223734
  H   11.27201685416392     20.36600519730404      6.67566002805245
  H   4.27018632636406     21.33324741734642      6.78017992907347
  C   5.28980511420078     23.26713411545063      8.48015801973811
  H   5.86023744267981     24.10095569605345      8.91548770495871
  H   4.35601296757398     23.63716781234104      8.02682012115480
  H   5.05612522319959     22.55102229696526      9.28042080598127
  C   6.55008564339249     23.65284430296904      5.89315590470250
  H   7.23965944987742     24.44678350399880      6.22059936646914
  H   6.95646307222802     23.14458619349937      5.00869069410362
  H   5.57518704429450     24.10547006802064      5.64510835663025
  H   7.29846756659583     17.66109818979351     10.69180049859596
  H   8.47744626716780     17.69607240848881      9.39737649557361
  C   6.61822189061184     20.45751633700950     11.26651606337918
  H   5.62747508907411     20.39302020449935     10.79491552422924
  H   6.62297119895054     19.83866224020807     12.17824204705860
  H   6.83071494338785     21.50587235612289     11.52260940552209
  C   9.42098414821391     19.81239360924548     11.10397278362890
  H   9.26496421586896     19.17965064834594     11.99321781831003
  H   10.24170872962156     19.39072617889226     10.50515480388098
  H   9.68572057865470     20.83221153204610     11.41862165028362
  C   6.27752685969648     18.61440052208156      7.41152260729858
  N   5.30417877807886     17.98941806717138      6.51911779154519
  H   4.41613776173833     17.83613314561865      6.99736560136480
  H   5.62737268531286     17.07495754305343      6.20184158360972
  N   5.65113181827491     20.56645867903292      5.34552456401419
  H   5.38034399524387     19.57044542710486      5.29036446379823
  H   5.12516472834914     21.08489582092479      4.64462563176718
