26
orca.xyz
  O   1.19668593628186     -0.42792447933186     -2.44579386342332
  N   3.08224372555287      0.03938025916995     -0.24566023372223
  H   3.35611137679675     -0.65688576395010      0.45329008347544
  H   3.46996831556567      0.92658469510891      0.08821405491442
  Fe  0.95175704662733      0.05291983225427     -0.81267765800544
  H   3.60793950483988     -0.19678475878394     -1.09292435816081
  N   0.67996896482162      2.09586629796541     -1.25878227657511
  H   1.12738233125317      2.77382461467310     -0.63730159094266
  H   1.01006400418148      2.30003658400129     -2.20545456808151
  H   -0.34201843661912      2.29573407728860     -1.24488433707117
  P   0.42107373710770     -2.21969738756671     -0.67864145097552
  H   1.54076636516825     -3.10825477400689     -0.70037451035212
  H   -0.28852928815437     -2.71180551347751      0.44588145433193
  P   -1.68209515358951      0.06466381086771     -1.21733158238792
  H   -1.75440134107072     -0.00607872128866     -2.62702333758021
  H   -2.74552198233233     -0.82441882327964     -0.87099868647331
  P   0.30073220898948      0.38517125540709      1.47392342012592
  H   -0.32933910132936      1.62308397773345      1.77498729667302
  H   -0.64957651917087     -0.50125517584404      2.04401725439667
  H   1.27345874860878      0.38230379928583      2.51283500252718
  N   -0.65967052545699     -2.51165593174475     -1.92784289537775
  H   -0.27704948237837     -2.22560577647603     -2.83095793030332
  H   -1.10344532949475     -3.43108489795285     -1.96865266142317
  N   -2.19776446856972      1.68430362383513     -0.98800817440321
  H   -2.42666062383992      1.91158491251564     -0.01907213801991
  H   -2.97387219190149      1.99092291425588     -1.58031488754810
