26
orca.xyz
  O   1.12739475324620     -0.41736764227290     -2.40772014453915
  N   2.94100648526503      0.00559777654783     -0.13246623775112
  H   3.23733082624092     -0.74228617653118      0.50036611993420
  H   3.28938952822478      0.87038227532703      0.29067762821509
  Fe  0.79560969504174     -0.04180268373360     -0.75423245331748
  H   3.48262738575740     -0.13042578800912     -0.99145172482276
  N   0.66954888311105      2.04284370504818     -1.04825773741522
  H   1.58011994976251      2.44815019260229     -1.28096272411992
  H   0.05932184002968      2.29487573333144     -1.82930384988068
  H   0.32180014046346      2.52137784492513     -0.20597957062431
  P   0.55390289651700     -2.35751753059245     -0.63558150239791
  H   1.80540856268788     -3.04509443544142     -0.54373870068915
  H   -0.14164558679122     -2.94336682186343      0.45272785119162
  P   -1.79520612699007     -0.21330637471834     -1.20503163928021
  H   -2.07619590513712     -0.44037925524928     -2.57440949802490
  H   -2.60254190716037     -1.21814941315910     -0.61231834048088
  H   -2.65175408375090      0.90546456773163     -0.98570472600904
  P   0.12808603735256      0.27927105918449      1.47874053447655
  H   -0.62821795187866     -0.73982827272700      2.13698919308095
  H   1.20048768127879      0.39531510546803      2.40155298629994
  N   -0.36408439967535     -2.80921678102761     -1.95189661414788
  H   -0.01270987431655     -2.40510692191272     -2.82184333276371
  H   -0.63385470051815     -3.78933865039484     -2.04765050374801
  N   -0.61350356392463      1.79015318091577      1.67040206395671
  H   -0.63003330327950      2.16169736614832      2.62308443404675
  H   -1.55056631378761      1.85180377782030      1.27141223779328
