21
orca.xyz
O 	-2.721647	1.654540	1.886679
Fe 	-2.765897	1.820129	0.171990
H 	-3.128515	4.493492	0.216934
N 	-2.678296	2.033049	-2.061035
H 	-2.288011	2.920551	-2.376856
H 	-2.110516	1.322330	-2.521801
N 	-0.638635	1.786482	0.169942
H 	-0.273510	0.836169	0.103647
N 	-3.845545	-0.005022	-0.096213
H 	-3.620433	-0.622368	0.682929
H 	-4.855325	0.132913	-0.049075
H 	-0.150434	2.327666	-0.541373
H 	-4.247470	3.777468	1.147155
H 	-3.588546	1.973922	-2.516850
O 	-3.773392	3.703458	0.248380
N 	-3.595517	-0.789553	-1.350006
H 	-3.965308	-1.719695	-1.546407
H 	-3.029396	-0.475458	-2.138135
N 	-0.177889	2.295675	1.503522
H 	0.553888	2.991557	1.647504
H 	-0.547868	1.999631	2.406722
