25
orca.xyz
  O   0.71281293735496     -0.11359194311306     -1.85255449206892
  O   0.04651834057692     -2.17309484764689     -0.03258012749398
  O   0.42177373120577      2.10603013263405     -0.09975214121724
  P   2.74239680833561     -0.21097578535767      0.20661735916232
  P   -2.23918835012398      0.09743023878064     -0.70961166411223
  O   -0.15591193483735     -0.00257142279393      1.90292481677041
  H   -0.46358863228732     -2.70139781642580      0.59797554259571
  H   0.22444060711118     -2.73857257761228     -0.79878585999205
  H   0.58439923263922      2.68679646324528      0.65755347551042
  H   0.71393430919976      2.58742850150046     -0.88809862737964
  H   3.49437834567132      0.66190923566879     -0.61825907132563
  H   3.30805906802029     -1.46055564985651     -0.15350743255318
  H   -2.74516250964315      1.35090807444938     -1.14442811497533
  H   -2.61475922468913     -0.70667780597882     -1.81633745582350
  Fe  0.26537284306498     -0.03709365018148     -0.19445871351861
  H   3.36136546270086      0.00737577183888      1.46528823972769
  H   -3.25367667143452     -0.26961484907775      0.21414798533837
  C   -1.05349036340493      0.92750621229200      2.50315110395689
  H   -0.50955100423949      1.59646765140709      3.19283721547665
  H   -1.50880129012539      1.52000369501043      1.69785173001343
  H   -1.84181554970385      0.39456303191095      3.06169972596767
  C   0.51996578451539     -0.81393413837437      2.86153693399125
  H   1.13024169257363     -1.54185239530934      2.31067045853322
  H   1.16599408977987     -0.19366046528125      3.50641990649289
  H   -0.21324294268495     -1.34922338810634      3.48899337266697
