24
orca.xyz
  O   -3.24801876483696      2.12881248575445      1.32777574531394
  Fe  -3.26710188800922      1.85043890204494     -0.30225639603488
  P   -4.47194249296149      3.87477182731982     -0.26701785879267
  H   -3.53346388346510      4.90656650113061     -0.00840483951710
  H   -5.05316833995283      4.31859931802211     -1.48623377139659
  N   -3.21970322192537      1.71002455396347     -2.38172270528428
  H   -2.79206139487189      2.52347868908408     -2.83744671237273
  H   -2.69225224010895      0.90233658581845     -2.73052840944599
  P   -0.88927161021881      1.80997421702898     -0.02176250602460
  H   -0.52078018546579      3.03859002610719      0.58127646781997
  H   -0.59133467607979      0.88980830443490      1.01248755772983
  N   -4.15162507224165     -0.03314231129867     -0.00447743619504
  H   -3.79382826051883     -0.38837434260738      0.88962507065490
  H   -5.16712752156168      0.03389638668932      0.12584100913893
  H   -4.00291106485107     -0.77158897498689     -0.69907775585226
  H   -4.15123253685108      1.62972902186766     -2.80558261963999
  C   -5.74370477372733      3.99019205503356      1.00206319493409
  H   -6.15162499030211      5.01446085598716      1.02240187125974
  H   -6.55375952619085      3.27771727933378      0.78113637200031
  H   -5.28235911497972      3.74445601533468      1.97084570295395
  C   0.30315101558685      1.50866161047917     -1.34870361054367
  H   1.32617174726896      1.55857343373436     -0.93759241669029
  H   0.14400383661342      0.50814417805366     -1.78125720818434
  H   0.19924560356038      2.27554809499287     -2.13241114545630
