18
orca.xyz
  O   -1.52565962507764      1.35572872526744      0.64824042182186
  Fe  -3.44997560380932      1.37443820704088     -0.06957506897956
  P   -4.63633259799936      3.45963398036312      0.19559873941671
  H   -4.19177265561174      4.35853394587861      1.20617403684128
  H   -4.92958013113467      4.39162604670572     -0.83963850912917
  N   -2.90134705196965      1.35870236243218     -2.14658037101977
  H   -2.24090562198795      2.10813835771035     -2.37600229228890
  H   -2.43858545884288      0.50062772741430     -2.46613078713925
  P   0.00591266137056      1.41955555662115      0.48555013722166
  H   0.57764952312878      2.38310453252260      1.35162343258721
  H   0.62135266863146      0.17218982189884      0.75376926272843
  N   -4.97681172434587     -0.10020592303956     -0.12051633966698
  H   -4.84951263929764     -0.81847118163476      0.60124842706757
  H   -5.88689022813587      0.32871911247616      0.08649676563400
  H   -5.10718220159445     -0.61176592351545     -0.99963564280053
  H   -3.68495058082509      1.49698197703372     -2.79369504629871
  Cl  -6.48493031611923      2.94059068921624      0.83193309335952
  Cl  0.62648908456187      1.92195312593593     -1.33665406677627
