23
orca.xyz
  O   0.08185584290393      0.14742272251405     -2.19345120376270
  O   -0.56442228964257     -2.41103087349131     -0.70221901311514
  P   2.27191441380778     -0.82350903285618      0.17273931279257
  O   -2.24724552234971      0.20969695376730     -0.43364368387620
  O   -0.36599024426035     -0.74346632655415      1.54676983406296
  H   -0.64192275170826     -2.98402974794549      0.07476096682360
  H   -0.49675887383923     -2.98694650717809     -1.47756129609693
  H   2.64281969737329     -2.18836461925467      0.28975500384985
  H   -2.61681158162346      0.63504954087634     -1.22269964660267
  H   -2.92249579680231     -0.42407985541862     -0.14624904424111
  H   0.54069430070517     -0.68294845070685      1.97826210371415
  H   -1.00792904179639     -0.34320612501394      2.14908223183949
  Fe  -0.14943287127620     -0.32075086355640     -0.55700502234011
  H   3.43721759122439     -0.30542501496614     -0.46788159033300
  P   0.60423008561456      2.00709944726656     -0.20423351820530
  H   1.78112588903550      2.23772285903522     -0.95555218653682
  H   -0.24140304212319      3.02041755645701     -0.75421840802451
  N   1.12268665924355      2.42234450147847      1.35973099831097
  H   1.63683790415111      3.30407847797261      1.44003512108214
  H   0.37394140631022      2.41123552402952      2.05420559742345
  N   2.23724356539927     -0.32892659661831      1.80956081929756
  H   2.13310226922341      0.69893115886075      1.87078154789105
  H   3.00564961272215     -0.65287353859678      2.40287879641646
