23
orca.xyz
O 	0.454611	-0.312160	-2.168341
O 	-0.598512	-2.387125	-0.416798
P 	2.337971	-0.694577	0.060952
O 	-2.237090	0.057831	-0.680137
O 	-0.662769	-0.430581	1.626347
H 	-0.722510	-2.870502	0.408108
H 	-0.338981	-3.027075	-1.089300
H 	2.883280	-1.863400	-0.515502
H 	2.816402	-0.803739	1.388494
H 	-2.586656	0.756795	-1.244898
H 	-2.779153	-0.718286	-0.868565
H 	-0.103762	-0.329183	2.403899
H 	-1.529714	-0.089653	1.875109
Fe 	-0.064206	-0.306466	-0.533530
H 	3.218860	0.280888	-0.453413
P 	0.370951	2.174615	-0.253391
H 	-0.657076	3.099657	-0.557041
N 	0.895088	2.811292	1.357827
H 	1.215778	3.762446	1.539331
H 	0.915481	2.274456	2.224827
N 	1.696477	2.808998	-1.310102
H 	2.438704	3.440516	-1.008828
H 	1.816839	2.590307	-2.299033
