26
orca.xyz
  O   0.17293600516046      0.53027868729499     -2.44021557767311
  N   2.25565314858788     -0.16463970454226     -0.77676567868507
  H   2.29758441614838     -0.85415898496705     -1.53709790608254
  Fe  0.05201551149890      0.10980792889036     -0.82469396127573
  H   2.75727269646235      0.66371081783640     -1.12534140051060
  P   0.11182168892446      2.47795625902777     -0.40949576357484
  H   1.29878637511747      3.08325125414351     -0.89395931765231
  H   -0.86285707852894      3.19106839620517     -1.15217862190066
  H   -0.00554978820913      3.09335146028150      0.86555060271810
  P   -0.08569710346563     -2.25407286736422     -1.25717346099343
  H   -0.41602560399145     -2.62831662855915     -2.58157331757673
  H   -1.13174166010259     -2.92030946552147     -0.54006108400294
  N   -2.18551950027716      0.16561246992705     -0.86475422743699
  H   -2.41798972564330      0.34660887169089     -1.84628711787210
  H   -2.70037934960745     -0.67959984011517     -0.60277359689508
  H   -2.62429136767411      0.92140016883291     -0.33124526488068
  P   -0.05352645510782     -0.45674538722266      1.48647927908006
  H   -1.32696685229919     -0.27619886737190      2.08810825963543
  H   0.22478064700055     -1.78532478341442      1.89591369671502
  H   0.74155096089374      0.25906508390428      2.41882842978748
  N   1.40603333196007     -2.93035802151051     -0.97255469068084
  H   1.89666977265793     -2.57451887499156     -0.14331869978879
  H   1.56585640073673     -3.91879003940342     -1.16712026926165
  N   2.83182584129371     -0.76376566453597      0.36045281921052
  H   2.82901830729430     -0.08618739023516      1.12354061372267
  H   3.81829632956654     -0.99353887868059      0.19372279647012
