26
orca.xyz
O 	-0.059711	0.219411	-2.592848
P 	2.339212	-0.243967	-0.812569
H 	2.832065	-1.561134	-0.972866
H 	3.033012	0.142991	0.355047
Fe 	0.053723	0.062904	-0.876864
H 	3.079846	0.443699	-1.798568
P 	0.775947	2.522661	-0.522444
H 	2.050867	2.923963	-0.048945
H 	0.780229	3.172526	-1.776651
H 	-0.009847	3.445102	0.212007
P 	-0.733672	-2.271445	-1.011843
H 	-1.070225	-3.122535	0.069108
P 	-2.008700	1.080989	-0.651794
H 	-2.281462	2.090770	-1.600628
H 	-3.124650	0.227569	-0.823955
H 	-2.359104	1.726933	0.554600
P 	0.033234	-0.351199	1.374850
H 	-1.192920	-0.747274	1.954560
H 	0.872996	-1.382568	1.852565
H 	0.398369	0.697838	2.251729
N 	0.356665	-3.387948	-1.928732
H 	0.803164	-3.174331	-2.820634
H 	0.619706	-4.328130	-1.633499
N 	-2.238532	-2.433967	-2.004356
H 	-3.038021	-3.022480	-1.769942
H 	-2.418334	-1.951214	-2.884651
