26
orca.xyz
  O   0.36472910441289     -0.64174854240953     -2.57925162780454
  N   2.38649511277809     -0.57792175988120     -0.34931938171513
  H   2.87809773770811     -0.72099136886103     -1.23563096703895
  H   2.47369782654686     -1.45702111352947      0.17512648770661
  Fe  0.20693074835242     -0.22895601481294     -0.90922156704251
  H   2.92231223019911      0.12106560954226      0.17058795437350
  P   0.90994765428968      2.04187837774822     -1.25988381779087
  H   1.97305739149957      2.21383875306994     -2.18118476812399
  H   -0.03463906066330      2.95414167723314     -1.79761900184988
  H   1.39261317165217      2.81715171086241     -0.17191271709073
  P   0.13734670850892     -2.55418532356630     -0.67818298060727
  H   0.82861109385938     -3.17930330372503     -1.74147704499310
  H   -1.16763322506331     -3.11784191106651     -0.85352898815692
  N   -1.93689014132165      0.17947073367157     -1.11778802309596
  H   -2.14079856157907      1.11454061742269     -1.47936312574917
  H   -2.31950077728849     -0.46792361377609     -1.81218774429137
  H   -2.48243164615408      0.07274792598991     -0.25526358072482
  P   -0.19154450139224      0.08760286388102      1.36341924808909
  H   0.87000908406970     -0.32362009619640      2.23152763953759
  H   -0.32041060266661      1.42794032648823      1.81207886874213
  N   0.93454411952366     -3.18841775976335      0.66065855977785
  H   0.56443490542273     -2.95230908141638      1.57921345372127
  H   1.19850720128204     -4.17525798592167      0.62360663341051
  N   -1.67256036438701     -0.54060321640085      1.85570654178379
  H   -2.02006588739558     -0.27955926418650      2.78024160812798
  H   -1.84035856694466     -1.52666057525618      1.66754266411185
