23
orca.xyz
  O   0.60136123563629     -0.01484978410833     -2.04571385133088
  O   -0.32635215869386     -2.10917680815196      0.11312185722942
  O   0.64211963063833      2.11860369627053     -0.18967833149208
  P   2.52243995830377     -0.44977057736876      0.10543924058907
  P   -2.29961811306079      0.41394234062705     -0.97484665392774
  O   -0.23195762001372      0.16800810952509      1.68972679120302
  H   -0.24764668530072     -2.91016595132792     -0.43708972545383
  H   0.89063550831831      2.37041994776120      0.71830040262344
  H   3.36694801890823      0.63636063473573     -0.23926731001672
  H   3.11676206092574     -1.50826338559387     -0.62606592516171
  H   -2.55659618979467      1.56760951257492     -1.76052680432543
  H   -2.83729884081394     -0.58183796032099     -1.83101454593842
  H   -0.32965976314747     -0.81392672424583      1.93150481233371
  H   -1.00115368763286      0.61321049367289      2.07458415878539
  Fe  0.14574907858714      0.07466992248227     -0.39559863604023
  H   2.95733638201360     -0.73373626161989      1.42656123204552
  H   -3.35530753025876      0.52010749925380     -0.02956287536155
  N   -0.43355006138523     -2.41906576557753      1.46980208754404
  H   -1.31460247619319     -2.92408186986640      1.62646731926469
  H   0.33979286597651     -3.03752726066648      1.74321801576370
  N   1.65604545318237      2.66818793807359     -1.01659617577848
  H   1.33541489413507      3.61845252627896     -1.24580531480971
  H   1.57327571814863      2.11393850786000     -1.87620609761323
