18
orca.xyz
  O   -2.79941392358920      2.16651839559081      1.66997810833302
  Fe  -2.76881400939619      1.82493711228602      0.05717372023880
  P   -3.29794987403930      4.12255514693735     -0.01897087756714
  H   -2.46003950919329      4.89713511329622      0.81559168615560
  H   -3.30603877224782      4.82881442394913     -1.25024124379723
  N   -2.87730977339401      1.51949046955223     -2.01408604325224
  H   -2.20158461549057      2.08877843867874     -2.53562459055776
  H   -2.68142064937285      0.54717845095112     -2.27923623449307
  N   -0.69230961726849      1.50696982728029      0.11992728178850
  H   -0.35861688330840      1.52008957144594      1.09310069560808
  H   -0.28924798443904      0.67821109190198     -0.33574874695068
  N   -3.92385709899691      0.11155594965199      0.42244549854737
  H   -4.12390746156032      0.06466439041738      1.43325249717786
  H   -4.81002773231301     -0.03944296243197     -0.07770035328541
  H   -4.59486667230606      4.36526447916382      0.49992419914294
  H   -3.78844843494411      1.73456537948460     -2.43462986834049
  Br  -2.81112024330361     -1.35414574802099      0.03284519476783
  Br  0.02750824220847      3.02228402408688     -0.72924990418340
