22
orca.xyz
  O   -3.40784662282407      1.95992300542572      1.04610224921425
  Fe  -3.19029365360529      1.69258550728664     -0.56907203406910
  P   -3.58094835952940      4.04606343111693     -0.60102625177787
  H   -2.69304951190335      4.78994747247265      0.21406423751435
  H   -3.59556536878630      4.81073288429465     -1.79990210352007
  N   -3.15214618683661      1.54202028588418     -2.62811649550312
  H   -2.80358513068635      2.37065789659032     -3.11732310162656
  H   -2.88050332871352      0.72273638316101     -3.18688461502418
  P   -0.81236021171370      1.50541918010599     -0.03916647040082
  H   -0.34546452213612      2.71095349677570      0.54242992409570
  H   -0.56538610636654      0.59149002033839      1.01642730722618
  N   -4.14502662176571     -0.20479285661954     -0.29028495706881
  H   -3.62475388345111     -0.75531033225842      0.40745568126868
  H   -4.98688854724662      0.10714222339057      0.20601617429001
  H   0.23707225081186      1.19933285398203     -0.94640977976627
  H   -4.84127336641724      4.35760065371616     -0.03576989506199
  N   -4.53371880179508     -0.93617215909879     -1.42999689386332
  H   -5.28850989062369     -1.59618932375886     -1.21230055077679
  H   -3.74107650671208     -1.49218812150574     -1.75745974258953
  N   -4.54453266188535      1.62763839517435     -2.39294424686904
  H   -4.90465818830017      0.64792827274763     -2.35120029537915
  H   -5.04879872070221      2.18803315640467     -3.08688184841179
