23
orca.xyz
O 	0.304321	-0.145266	-2.086124
O 	-0.155261	-2.186059	-0.144427
O 	0.375461	2.090184	-0.247587
P 	2.451254	-0.392499	0.104922
P 	-2.247820	0.282758	-0.411680
O 	-0.111978	0.038695	1.924107
H 	-0.219970	-2.752565	-0.921903
H 	0.605474	2.614446	0.527393
H 	0.616350	2.611801	-1.021654
H 	3.079543	-0.198597	-0.898898
H 	2.686630	-1.524023	0.427802
H 	-2.545685	1.434606	-0.255078
H 	-2.658087	-0.020304	-1.497882
H 	-0.830836	0.438264	2.425924
Fe 	0.128146	-0.055617	-0.394757
H 	2.929345	0.317504	0.945948
H 	-2.887313	-0.353073	0.380007
N 	-0.777652	-2.919653	0.980237
H 	-0.779442	-2.614329	1.953507
H 	-1.271192	-3.808809	0.902033
N 	0.795939	-0.525722	2.947591
H 	1.289581	0.013632	3.658854
H 	1.024864	-1.514268	3.050871
