25
orca.xyz
  O   -0.18425903557551     -2.08577594661404     -1.50184375384641
  P   1.43789107642012      2.09087979363261      0.44289386003688
  O   1.83079037875269     -1.04291252206533      1.21765303285661
  H   2.73268399236818      2.56818941700392      0.10101820157622
  H   1.48008299929281      2.30452300903953      1.84762102611184
  H   2.66218069975731     -1.52271009515217      1.08725708467741
  H   1.68766147109776     -1.01737554121392      2.17407374390715
  Fe  0.75089864850021     -0.14803949767137     -0.43944526602227
  H   0.67194733127084      3.22545504631952      0.06428723455997
  P   0.07924966473394      1.14818741774147     -2.44068990272114
  H   1.03044666467416      2.12307095532312     -2.85446241165361
  H   -0.02075057116413      0.45849786956459     -3.67580863895752
  H   -1.08834525764241      1.95363201290975     -2.54113500316354
  P   -1.44349147431647     -2.31743002301210     -2.39150465517511
  H   -1.05965362371479     -2.69740868037297     -3.69838547981362
  H   -2.18184856073150     -3.39043295759687     -1.84749744294641
  P   -1.42249786461128     -0.07219332221064      0.51222807143975
  H   -2.35152909735322      0.87764724486295      0.00876470227059
  H   -1.49724184055346      0.31906096100853      1.88732260449813
  N   -2.32541438097047     -1.51263362829008      0.31714342179760
  H   -3.22557230380131     -1.52909806351181      0.80367497182017
  H   -1.77854416415220     -2.32608032800373      0.60398657033392
  N   -2.37774613679576     -0.98062529181827     -2.64534366993459
  H   -3.08716318552979     -0.79802787539331     -1.93842478348574
  H   -2.68455378112134     -0.78830095422324     -3.59832319105730
