22
orca.xyz
  O   0.48780833331558      0.48717056488141     -2.37568373192747
  N   2.34463879817749      0.26341138845267     -0.24524447016321
  H   2.83203957093438      0.56648518876559     -1.09383422823018
  H   2.77622469969206     -0.62448999442972      0.02685408228721
  Fe  0.20884117153843      0.16911920054175     -0.75291794856755
  H   2.59115080248504      0.92500771680580      0.49689341118101
  P   -0.06029040603092      2.55109130304195     -0.55108047227312
  H   1.07663868141375      3.30945340065508     -0.15782897634639
  H   -0.41620377829146      3.19974974235427     -1.76291838130920
  P   0.26619318968465     -2.25621277294807     -1.14377268057974
  H   -0.60205177832489     -2.69017697324921     -2.17669594233685
  H   1.50464421008684     -2.73779311931768     -1.63870131655425
  H   -0.00847149690297     -3.22518426376484     -0.14190704443211
  N   -2.01661190762860      0.11896342753230     -0.96083558820523
  H   -2.19071860572336      0.20273780598076     -1.96708097286942
  H   -2.51061039934281     -0.72413151020058     -0.65540513416248
  H   -2.50947635727610      0.90244509606647     -0.52079870345435
  P   -0.13788355367394      0.02416031739406      1.60822865635501
  H   -1.44169164094889      0.29614736779361      2.10410387783973
  H   0.13127143631969     -1.19092709456198      2.29857066760128
  Cl  1.00763983846297      1.34274236626123      2.61516350588780
  Cl  -1.49786877556993      3.14752391560561      0.72647280198436
