22
orca.xyz
O 	-3.308403	1.297297	1.838204
Fe 	-2.916033	1.658037	0.223295
O 	-4.086936	3.392292	0.236384
H 	-4.118231	4.161867	-0.344446
N 	-2.355269	2.212342	-1.829093
H 	-1.786788	3.056937	-1.899370
O 	-0.883529	1.272939	0.539609
H 	-0.593695	1.016228	1.423742
H 	-0.091817	1.495821	0.035517
N 	-3.978471	-0.037834	-0.417199
H 	-3.580011	-0.873849	0.011179
H 	-4.937835	0.012015	-0.073407
H 	-4.547955	3.632057	1.049768
H 	-3.157714	2.384368	-2.434940
C 	-1.552008	1.138558	-2.544746
H 	-0.758472	1.616884	-3.154240
H 	-1.088546	0.463603	-1.796339
H 	-2.223356	0.552300	-3.205437
C 	-4.058109	-0.303422	-1.911696
H 	-3.559176	0.521703	-2.459613
H 	-3.551347	-1.262447	-2.143941
H 	-5.121868	-0.363159	-2.221159
