18
orca.xyz
O 	-2.721647	1.654540	1.886679
Fe 	-2.765897	1.820129	0.171990
O 	-3.773392	3.703458	0.248380
H 	-3.128515	4.493492	0.216934
O 	-2.678296	2.033049	-2.061035
H 	-2.288011	2.920551	-2.376856
O 	-0.638635	1.786482	0.169942
H 	-0.273510	0.836169	0.103647
O 	-3.845545	-0.005022	-0.096213
H 	-3.620433	-0.622368	0.682929
H 	-4.247470	3.777468	1.147155
H 	-3.588546	1.973922	-2.516850
N 	-0.184032	2.288886	1.485741
H 	0.134941	3.239055	1.675252
H 	-0.141208	1.738555	2.343412
N 	-5.310361	0.195071	-0.027833
H 	-5.781664	0.913643	0.521720
H 	-6.004835	-0.364256	-0.522965
