24
orca.xyz
  O   -3.21360394465600      2.20912132557179      1.65551115999063
  Fe  -2.92932427411790      1.94752548000978      0.04194255991311
  P   -3.87185634991896      4.11190192530410      0.02663464185580
  H   -3.13028122180339      4.99372634528980      0.85037834713915
  H   -4.07438012079834      4.86775059793068     -1.15737802468568
  N   -2.65774715399695      1.81504922840094     -2.01312055835053
  H   -2.23739732855742      0.89338961012304     -2.17283462056547
  N   -0.92702006682036      1.46661895168261      0.47975127529675
  H   -0.39117979298454      2.31448669648987      0.69825190020836
  H   -0.91830894219655      0.92316148438060      1.34970930948150
  N   -3.97311662281793      0.12362144167689      0.16420767136350
  H   -3.73563609620454     -0.31653702755293      1.05998622004246
  H   -4.98475395756080      0.28929671452113      0.21690158814033
  H   -0.36881091659902      0.94502982622981     -0.20309813235943
  H   -5.15265348347743      4.10925257152430      0.63135688355018
  H   -3.83857347595922     -0.58672000563261     -0.56187292165364
  C   -1.70277305772634      2.81145524391241     -2.52797208920880
  H   -0.75112241691240      2.75183578092159     -1.98145440487042
  H   -1.50246326181090      2.64516308126541     -3.60004673299468
  H   -2.12004879309995      3.82142555268724     -2.41329007449720
  C   -3.92949721572672      1.83545714498833     -2.75613302038985
  H   -3.75816187799725      1.66019454799557     -3.83181026118174
  H   -4.60847825171892      1.05757912795053     -2.37953380435557
  H   -4.41058484482407      2.81705956632509     -2.64450467127414
