35
orca.xyz
  O   -3.08036707567169      2.98672141682993      1.74918109862692
  Fe  -3.03683887984231      2.57277113280223      0.16568885213741
  N   -3.59863600443931      4.48928175821514     -0.33557946170098
  N   -3.45312313162287      1.80152864937294     -1.73664822115731
  O   -0.96837277588641      2.51742914875128      0.14569914071898
  O   -2.78669975930102     -0.32118823940883     -0.12525031776935
  C   -5.03615426480066      4.53084149856625     -0.01464475459356
  H   -5.44509472608887      5.52754678709647     -0.25409723896010
  H   -5.57984499354652      3.78482672240853     -0.61431121752234
  H   -5.17637985862855      4.33462864004265      1.05706939271110
  C   -2.85469987867368      5.45814810713186      0.49191881742689
  H   -1.78054947476581      5.38598294197692      0.27424018758042
  H   -3.19791110700600      6.47712338895318      0.24706788538776
  H   -3.04194840011376      5.25574896573465      1.55295144444464
  C   -3.36341838010070      4.79927257946286     -1.75452054323249
  H   -4.02483522906409      4.20879206898114     -2.39886125201653
  H   -3.58683658261482      5.86398768534358     -1.93598415043682
  H   -2.30812331188421      4.62444516933938     -2.00849390444329
  H   -3.25243775870779      0.79220013169404     -1.68608798337275
  H   -4.43310176190134      1.88013188053481     -2.02454516383552
  H   -2.91118829847006      2.17664657834907     -2.51867859071970
  C   -0.12458339629878      2.11096410820749     -0.93915397687868
  H   0.21757305001953      2.99673869053370     -1.49733999749353
  H   0.74106907160146      1.55655531895019     -0.54000900682368
  H   -0.72456797882888      1.43453012093543     -1.55918748720690
  C   -2.89003466360472     -1.67443070597732      0.33123452758510
  H   -2.28885173549498     -1.82439973240007      1.24552050743437
  H   -3.94559425585834     -1.94949825547916      0.51023581209732
  H   -2.48120551499577     -2.28592712948648     -0.48628737115572
  N   -3.26383750925143      0.58920842944314      0.79455892794823
  H   -2.72734904604773      0.52490773568401      1.67498592847951
  H   -4.24324094716105      0.36999526102415      1.04241041240540
  N   -0.25095219375731      3.29734823121939      1.06942348077243
  H   -0.95252687662110      3.52823188172058      1.78132503813901
  H   0.43419844588180      2.66712449409092      1.50864279339653
