28
orca.xyz
O 	11.847914	7.058075	12.973660
Fe 	13.053770	7.373406	11.800642
N 	14.646638	7.728902	10.161584
N 	12.021231	8.310760	10.312335
O 	14.485207	8.587998	12.735472
O 	13.743023	5.500717	11.376512
C 	14.142229	8.818189	9.325046
H 	14.534620	9.781373	9.681227
C 	12.659817	8.920494	9.390429
C 	15.874122	8.078628	10.865149
H 	16.478129	7.179570	11.063652
C 	15.590608	8.662368	12.209967
C 	14.753875	6.464035	9.433966
H 	14.057544	6.462999	8.583451
H 	15.751039	6.311890	8.997982
C 	14.373597	5.304925	10.284077
H 	12.154071	9.550944	8.651976
H 	14.621746	4.299959	9.927565
H 	16.417862	9.150644	12.752025
H 	11.011602	8.451412	10.317670
C 	16.797492	9.012979	10.061422
H 	17.459954	9.565260	10.758636
H 	17.413923	8.411349	9.362473
H 	16.183077	9.734707	9.484776
C 	14.609557	8.702801	7.862210
H 	15.290846	9.545310	7.625559
H 	15.145072	7.741789	7.720243
H 	13.729053	8.738269	7.188137
