26
orca.xyz
O 	-0.059711	0.219411	-2.592848
P 	2.339212	-0.243967	-0.812569
H 	2.832065	-1.561134	-0.972866
Fe 	0.053723	0.062904	-0.876864
H 	3.079846	0.443699	-1.798568
P 	0.775947	2.522661	-0.522444
H 	2.050867	2.923963	-0.048945
H 	0.780229	3.172526	-1.776651
H 	-0.009847	3.445102	0.212007
P 	-0.733672	-2.271445	-1.011843
H 	-1.908885	-2.398366	-1.786941
H 	0.117856	-3.143408	-1.727912
H 	-1.070225	-3.122535	0.069108
P 	-2.008700	1.080989	-0.651794
H 	-2.281462	2.090770	-1.600628
H 	-3.124650	0.227569	-0.823955
H 	-2.359104	1.726933	0.554600
P 	0.033234	-0.351199	1.374850
H 	0.872996	-1.382568	1.852565
H 	0.398369	0.697838	2.251729
N 	3.228422	0.251979	0.683908
H 	3.544354	1.198640	0.894859
H 	3.491146	-0.371945	1.446793
N 	-1.537492	-0.858578	2.117470
H 	-2.015573	-0.370835	2.875115
H 	-2.081566	-1.676499	1.843086
