19
orca.xyz
O 	-2.721647	1.654540	1.886679
Fe 	-2.765897	1.820129	0.171990
O 	-3.773392	3.703458	0.248380
H 	-3.128515	4.493492	0.216934
N 	-2.678296	2.033049	-2.061035
H 	-2.288011	2.920551	-2.376856
H 	-2.110516	1.322330	-2.521801
O 	-0.638635	1.786482	0.169942
O 	-3.845545	-0.005022	-0.096213
H 	-3.336647	-0.749968	-0.170935
H 	-4.855325	0.132913	-0.049075
H 	-4.635410	4.202733	-0.012823
H 	-3.588546	1.973922	-2.516850
N 	0.504438	2.722217	0.260402
H 	0.602217	3.585971	-0.273311
H 	1.316377	2.603170	0.866109
N 	-0.108949	0.407866	0.073768
H 	0.160312	-0.176235	0.865478
H 	0.043342	-0.105208	-0.794483
