18
orca.xyz
O 	-2.583355	1.387618	1.855236
Fe 	-2.627605	1.553207	0.140547
P 	-3.711823	3.579956	0.222754
H 	-2.826957	4.663999	0.179605
H 	-4.676327	3.832490	-0.760079
N 	-2.540004	1.766127	-2.092478
H 	-1.972224	1.055408	-2.553244
N 	-0.500343	1.519560	0.138499
H 	-0.187295	1.865524	1.044582
H 	-0.135218	0.569247	0.072204
N 	-3.707253	-0.271944	-0.127656
H 	-3.482141	-0.889290	0.651486
H 	-4.717033	-0.134009	-0.080518
H 	-0.012142	2.060744	-0.572816
H 	-4.363263	3.681654	1.457778
H 	-3.537443	-0.804769	-0.979187
Br 	-1.816594	3.411149	-2.677866
Br 	-4.227115	1.656537	-2.937313
