23
orca.xyz
  O   0.71456823075556     -0.87821514298569     -2.11302341493869
  O   -1.77668559847850     -1.29085738032998     -0.51876132246596
  O   1.76547202644685      1.68458462912675      2.91427865071657
  P   2.02902984339594      1.34403420250099     -0.85075749839740
  P   -1.33688715281528      1.61130365895122     -1.94616981348093
  O   -0.44156234744908      0.36930289062872      1.34262393284191
  H   -2.47226525883194     -1.12316944172465      0.13326127658812
  H   -2.11202923445343     -1.95958137928496     -1.13337380266507
  H   2.27022569879061      2.12333150739505      3.62316740167867
  H   2.23664671995187      1.91265080035052     -2.13182405210190
  H   3.25583904397301      0.65110809208330     -0.68241977792582
  H   -0.64569953946524      2.64657765024039     -2.62704344706405
  H   -2.09314897766455      1.07704839262078     -3.02153095737643
  H   -0.15038470365467      1.06959754700009      2.18045349638799
  Fe  0.01390485210934     -0.14320154524424     -0.73712926133187
  H   2.25047092854952      2.46981432824335     -0.01533158161765
  H   -2.33720083536387      2.36992984329068     -1.28231178951992
  N   0.41180936419230      1.81806280817152      3.18794033783257
  H   0.18291679770343      1.44637720699695      4.12104267451034
  H   0.12988918291746      2.80876366500658      3.17178044163261
  N   0.51062244355454     -0.65074419231587      1.26160221503315
  H   1.38924812236335     -0.37110576306736      1.71513283642841
  H   0.15741451920378     -1.50440705444031      1.71280922118851
