31
orca.xyz
  O   -2.61541231964579      2.82510820171668      1.56395781895605
  Fe  -2.67321527524663      2.49110630791692     -0.02894877686487
  N   -3.86610446803044      4.17886617800927     -0.30589901747499
  N   -2.54081903837145      1.86703380827738     -2.03350612897214
  O   -0.63054468605199      2.92385495737260     -0.12823200729594
  O   -2.13234001403518      0.40092381907922      0.53284477536014
  C   -4.90446090108491      4.27614181658000      0.73544757953470
  H   -5.43325764475223      5.23487805112088      0.61076739327702
  H   -5.62326207005963      3.45638139933529      0.61798420101418
  H   -4.43963905981355      4.23229991819356      1.72717899879474
  C   -2.86255998019747      5.25076953984907     -0.16782770722116
  H   -2.04775193317598      5.07531324796159     -0.88555798585186
  H   -2.48326036438622      5.22993713940307      0.86249774635022
  C   -4.48801232640342      4.15312387634355     -1.63882493776550
  H   -5.08066466809243      3.23472394580938     -1.74795918129401
  H   -5.16379221774014      5.01720044205111     -1.73994966380574
  H   -3.72415111522579      4.23431762955575     -2.42186846462521
  H   -1.94194439595895      1.03982941452260     -2.11230782371240
  H   -3.44378927470848      1.59547287098656     -2.43256380918078
  H   -2.14526907553074      2.55248409777444     -2.68343701818067
  H   -0.35477326230922      3.16847956880748      0.76983885668466
  H   -2.01077316706800      0.52354161005685      1.51252675082400
  C   0.45851353315610      2.27680773131940     -0.80435796780574
  H   1.39129612642687      2.82355699549051     -0.59254735735160
  H   0.55358838126710      1.22783024338094     -0.47821325392875
  H   0.26618861446313      2.32850894476691     -1.88435901541725
  C   -3.24325339299599     -0.39789073846010      0.33192558440119
  H   -3.45697721493514     -1.07476401321575      1.17313746965804
  H   -3.16920981610698     -0.93728398889626     -0.62260560402564
  Br  -4.81928763343177      0.78230685041726      0.15555120962972
  Br  -3.55362447451073      6.99946642587825     -0.50906995236211
