24
orca.xyz
  O   -2.30423909208271      1.47386438655436      1.91435294825593
  Fe  -2.32336058956363      1.49797142025455      0.26618842511953
  P   -3.36602989242973      3.64318566996886      0.65190723582860
  H   -2.57928369881083      4.45835793050745      1.50117059809292
  H   -3.77230877904629      4.55003849301437     -0.36403085242631
  N   -2.29002832753905      1.68355170999719     -1.81643720483137
  H   -1.64908969432906      2.43898662040385     -2.08330143147121
  N   -0.27528547907258      1.36194286338978      0.34035809940485
  H   -0.04892997099811      0.74259101302100      1.12620216865352
  N   -3.72345033296920     -0.05896440672260      0.25268516917800
  H   -3.28407013465239     -0.98557866026800      0.21043583952654
  H   -4.21895901292861     -0.03621360640414      1.15146164657757
  H   0.15071377566572      0.94063391975781     -0.49072398381403
  H   -4.55032515155967      3.47893444563447      1.41126062667626
  H   -4.43789646616675     -0.05011090283472     -0.48175729962239
  H   -3.20317232469467      2.01820049167358     -2.14270366528918
  C   -1.93962634542958      0.47198801113663     -2.58253584278635
  H   -0.94516277033632      0.10614112509023     -2.28884155739179
  H   -2.67566749751171     -0.32073943546008     -2.38899126799870
  H   -1.92479579254708      0.67214331008195     -3.66652299219900
  C   0.29774111906636      2.69223056666697      0.59103162374250
  H   1.39924648001268      2.64593481969852      0.64372921626180
  H   0.02221072915865      3.38320793328989     -0.22067608949186
  H   -0.08366786989754      3.07095770060313      1.54958079358734
