46
orca.xyz
O 	-0.175903	-3.469313	1.218012
Fe 	-0.071399	-2.110877	2.083262
N 	1.975654	-2.124691	2.458798
N 	0.293407	-0.200560	1.264438
N 	-2.078742	-1.877420	2.430933
N 	-0.087479	-3.170154	3.992053
C 	-0.056711	-0.295434	-0.164120
C 	1.745641	0.062299	1.391935
C 	2.280810	-0.683330	2.574682
C 	-0.466002	0.880163	1.918682
C 	-1.951349	0.630022	1.995020
C 	-2.352728	-0.500309	2.907763
C 	-2.907566	-2.206577	1.261024
C 	1.086815	-2.646673	4.682913
C 	2.267917	-2.774221	3.756339
C 	-0.000286	-4.627251	3.830299
C 	-1.365333	-2.809011	4.602817
C 	-2.417737	-2.820377	3.525291
H 	-0.901766	-5.000580	3.350730
H 	0.834786	-4.894630	3.188640
H 	-2.653576	-3.209105	0.918930
H 	-3.965519	-2.158866	1.541764
H 	-2.726182	-1.548564	0.456165
H 	0.199880	0.639794	-0.675011
H 	0.489818	-1.122705	-0.619270
H 	-1.121463	-0.478643	-0.283357
H 	1.930336	1.136245	1.544556
H 	2.237913	-0.259983	0.474416
H 	1.817345	-0.317688	3.545762
H 	3.364261	-0.545142	2.673563
H 	2.544304	-3.821958	3.564540
H 	-1.639159	-3.513102	5.398043
H 	-1.269086	-1.824880	5.066674
H 	-3.401151	-2.557380	3.930502
H 	-2.546153	-3.811075	3.077282
H 	-1.851353	-0.376439	3.870894
H 	-3.431763	-0.454109	3.100938
H 	-2.399750	1.536757	2.416325
H 	-2.396607	0.530440	1.003369
H 	-0.057468	1.003621	2.927341
H 	-0.274081	1.811845	1.370418
H 	0.895011	-1.601153	4.943948
H 	1.283472	-3.186979	5.618109
H 	2.498088	-2.614220	1.760640
Cl 	3.707045	-2.049861	4.464728
Cl 	0.185448	-5.380737	5.409971
