31
orca.xyz
  O   -2.46932752986717      2.73888297249468      1.56718846174835
  Fe  -2.79911146098933      2.37097576130430      0.01050313909283
  N   -3.42318007821187      4.38322515978253     -0.25136794956875
  N   -3.11649769905277      1.62763853411921     -1.91519193160092
  O   -0.73234080837335      2.63175763066495     -0.45108008857413
  O   -3.26637356469026      0.45726744665425      0.62393462849411
  C   -4.60209696374921      4.40155465735487      0.61216314780161
  H   -5.30585859346192      5.20821408502528      0.35032160844303
  H   -4.29665039768508      4.45402237670235      1.66508340971713
  C   -2.40864020493555      5.33022644815841      0.24481119603078
  H   -1.52973712301019      5.28455968229027     -0.41039523744356
  H   -2.81660508271839      6.35498527575600      0.22462638150477
  H   -2.12485477626694      5.05934323381028      1.26960767648826
  C   -3.77651593868215      4.67497651468131     -1.64710260844801
  H   -4.58570809596534      4.00872620997880     -1.97560429447516
  H   -4.12537413734364      5.71813109594369     -1.73189879367956
  H   -2.88865968525683      4.55996327574276     -2.28311216860914
  H   -2.32702604776848      1.02838808117861     -2.20079866550468
  H   -3.94220862355210      1.02100832179826     -1.90318139460669
  H   -3.26061668231692      2.28175082307535     -2.68697679103929
  H   -0.17229581341521      2.56458769689284      0.34035144923399
  H   -3.48088752711893      0.59329310974238      1.57779668648297
  C   0.01875747955185      2.42091517336171     -1.62500458448956
  H   1.04215915757680      2.80891621070986     -1.50362485338560
  H   -0.48880813623575      2.94149317732987     -2.44864764072638
  C   -2.34944230177340     -0.64524748062156      0.54283365073843
  H   -1.39734725927325     -0.41105959534985      1.04550300073886
  H   -2.81796429036287     -1.52237755327330      1.01825942908525
  H   -2.17330094598976     -0.86278762655825     -0.51754666667614
  Br  -5.50687993082079      2.71214382072334      0.38386547713759
  Br  0.15193310333326      0.56126030543782     -2.09942254860787
