35
orca.xyz
  O   -1.92164284923816      3.24168280920757      1.26197861507010
  Fe  -2.13477947105478      2.78327931108317     -0.29193204189596
  N   -3.77642290105074      4.08697910650130     -0.45597251007182
  N   -2.20183390354665      2.00802602022016     -2.19998096171188
  O   -0.26000390425324      1.43209988614793     -0.08785946663680
  O   -3.18756394006242      1.12417982901098      0.38444919356509
  C   -4.63549190780879      3.95156301314532      0.73176804777442
  H   -5.45689370238232      4.68519612840286      0.67303549279013
  H   -5.05928289458151      2.94008245680308      0.76136989022935
  H   -4.04391414702912      4.13546089586511      1.63632835093669
  C   -3.15911142844933      5.42043694302500     -0.49824299622300
  H   -2.48952825384653      5.49737316254521     -1.36809306192604
  H   -3.93950127488754      6.19489729932226     -0.59854091502059
  H   -2.60307466116772      5.59489783397048      0.43258652242234
  C   -4.56776080372022      3.83664177695650     -1.66653208959493
  H   -4.90107415350367      2.79051366103981     -1.68693874570221
  H   -5.45749347581402      4.48909303125938     -1.66829154090711
  H   -3.98141278357051      4.07311287948336     -2.56375043173450
  H   -1.31325336436394      1.59909025816835     -2.49674874347801
  H   -2.86836210788475      1.18769764340423     -2.11011699776181
  H   -2.52319463475012      2.59170461926394     -2.97341057054154
  H   -0.12098773922652      1.27506085448655      0.85825500106532
  H   -3.13238209398557      1.15307262529388      1.36816749719206
  C   0.60463057309174      2.46761236031164     -0.51872979872211
  H   1.40679217577414      2.65338607278619      0.21245460666312
  H   1.05970363158832      2.16371202637092     -1.47401637701654
  C   -3.22206500891653     -0.23840761423657     -0.07745801125226
  H   -2.20193653906483     -0.65886327072120     -0.06062699072370
  H   -3.85023104030695     -0.79643925432442      0.64280947558273
  N   -3.70992373417888     -0.22610426866358     -1.41836185701319
  H   -4.73082191865660     -0.22991251806926     -1.45745661990153
  H   -3.38808928483119     -1.04751134523434     -1.93226239043669
  N   -0.22403332779193      3.65777537547522     -0.72393410463855
  H   -0.08067790945341      4.08253022456705     -1.64254426549504
  H   -0.05946730013653      4.37693410402119     -0.01555009275312
