25
orca.xyz
  O   12.17106927366917      7.57928192597073     13.15906316712880
  Fe  13.27429917856281      7.69205613587108     11.91496183026149
  N   14.80980717309053      7.72399735643860     10.15194863603474
  O   12.23573246340029      8.43221032176476     10.26233855420342
  O   14.69584802885251      8.96275804218938     12.53155175304645
  O   13.80813837352743      5.59463714547802     11.42811298933787
  C   14.38157526918474      8.89039231401151      9.36474949170720
  H   14.89382112287696      8.93612079718874      8.38699995176707
  C   12.88340134306558      8.64177406869472      9.21500635967260
  C   16.06089266800000      8.02904992409973     10.81901458757467
  H   16.38901785215558      7.18083952370939     11.44368217389392
  H   16.87683513394424      8.29582127925319     10.12289197644507
  C   15.65839494417748      9.16571860287939     11.73796849423197
  C   14.63338455576518      6.50346627691021      9.38560982332663
  H   15.51812061062440      6.26060537143900      8.76658412829607
  C   14.33149615614306      5.35847875132244     10.35330578787757
  H   12.35793645787529      8.95192924405493      8.29084393365922
  H   14.54396624026447      4.31232817364125     10.04003617542449
  H   16.39512085588373      9.95223455017715     11.99221390100750
  N   13.46948460206220      6.71992494957875      8.53568994654854
  H   13.65363277750558      6.59886087169276      7.53759787846506
  H   12.63356425060043      6.18860777000130      8.78764566870429
  N   14.72663528467908     10.05382936842721     10.14804794759298
  H   15.25586238054619     10.75841870150107      9.63100339728676
  H   13.93877955106083     10.49976710070321     10.62405051639502
