25
orca.xyz
  O   12.28890452791300      7.60257790329491     13.32005144265026
  Fe  13.33200897230266      7.71146240448100     12.02385499790070
  N   14.78550765265768      7.83071182235157     10.22455941779805
  O   12.17651096968595      8.37978781005614     10.46187211001560
  O   14.93104113365877      8.68952048342095     12.73193940179961
  O   13.83603220927622      5.63250156078390     11.46244586086709
  C   14.26249799936914      8.99077658092268      9.51428999132581
  H   14.41701053875343      9.89632518504812     10.12774753613066
  H   14.73266505340774      9.15706690325548      8.52886965244784
  C   12.78439919590054      8.72800961456666      9.42585902456364
  C   16.11794923782871      7.97777111537665     10.77682584621224
  H   16.53406886993897      6.98068755100483     11.00454003639382
  H   16.81972648052946      8.46872963565141     10.07865973295723
  C   16.01826357078975      8.71280199660368     12.10100595129217
  C   14.56718922080112      6.61737975025129      9.41416795816622
  H   15.44317209515528      6.40087819728799      8.77448036624216
  C   14.30537445788329      5.44396645539245     10.35281920159688
  H   12.20413706295598      9.08830601799151      8.55391534283344
  H   14.49131885146477      4.41084446107237      9.98387381831093
  N   13.39849889169620      6.82053548048368      8.59346516747858
  H   13.56819872463994      6.75279536592320      7.58918952168519
  H   12.57180064511057      6.27604171097637      8.84233210469447
  N   17.08031676093938      9.32560833074737     12.58101216056733
  H   17.96352435796907      9.36291374059687     12.07991310952567
  H   17.03392491195671      9.76526803678504     13.50040852619853
