52
orca.xyz
  O   7.41064059857246     23.11960484088591      5.97732349920610
  Fe  6.30512301903968     22.24204906102413      4.97682662012948
  N   5.86971862370882     20.54820368808039      6.21933189908265
  C   5.78723735014243     19.38006210046091      5.32378858293347
  C   4.76699858512726     19.56409289683891      4.21412434226379
  P   5.13197046736028     21.15955662582460      3.41215369124667
  C   3.66903115057102     22.20257745475956      3.14557365258675
  C   4.20059150402958     23.62350632775112      3.29602513616029
  N   4.89716660701600     23.79012483427335      4.61231527471876
  C   6.06872441473109     20.78044864009813      1.89221288280820
  C   7.46952457007664     20.40069337728933      2.34453024862891
  P   8.01844898276478     21.58992725443951      3.62719432118963
  C   9.53582600222299     20.88261550406018      4.38363739525863
  C   8.51022268702420     23.09364503008182      2.76527509080987
  H   4.83469571259126     18.74101147017219      3.48545271335205
  H   3.19915254668915     22.05773208507955      2.15921472131351
  H   2.91350505935560     21.95321764783904      3.90318458419561
  H   3.73331434990135     19.57248641398561      4.59259029392178
  H   6.08724572689294     21.70000505590972      1.29264344740056
  H   5.57805810485772     19.98268536315651      1.31070151332087
  H   8.18618990377136     20.38639058687053      1.50618089412556
  H   7.48441546190869     19.40280426792449      2.81126699873383
  H   9.29512187640886     22.86656535807091      2.02583611557370
  H   7.62187400075106     23.50821729412010      2.26840446535394
  H   8.88644699292640     23.80949751610369      3.51179494058666
  H   10.35871106446584     21.07945479531941      3.66535000774548
  H   9.72328483676591     21.51348652213087      5.26854224041292
  H   3.35265700460290     24.34203369659809      3.29711687440974
  C   3.91697228359726     23.80008433085809      5.70342765126184
  H   4.44987520057738     23.88443450558373      6.65761147094190
  H   3.23315052078275     24.66076286285135      5.60480735732816
  H   3.32477635784448     22.88035625594754      5.70262251163476
  C   5.63085871574668     25.06735203827545      4.63867546559216
  H   6.00629349307632     25.23736506888796      5.65233148444406
  H   6.49587576501603     25.02582661895773      3.96810299337737
  H   4.96220114054544     25.89931876147148      4.35433742319371
  H   5.54905455204990     18.47738550549660      5.91627791340904
  H   6.80124786577626     19.23627379637698      4.91372691173371
  C   4.62925391262834     20.73672414237507      6.96849350000433
  H   3.78762954891617     20.89543297338722      6.28443673220357
  H   4.41310622370200     19.85014714510957      7.59086507591490
  H   4.72823520736093     21.60858912983681      7.62583883207237
  C   6.98928205688473     20.35268644655753      7.14954003574440
  H   6.81407161387867     19.45799268370301      7.77207581516840
  H   7.90401252256396     20.20798441759400      6.56510030121474
  H   7.09418343722305     21.23300870081248      7.79195508156076
  N   5.15535478986831     23.83926698330269      2.24500214868433
  H   4.73166529152636     23.59300620279980      1.35120210900570
  H   5.39801311415772     24.82600350798907      2.16413820002210
  N   9.32708664855430     19.51060048304642      4.74557003628876
  H   9.60024936603387     18.88103350501482      3.99302447450509
  H   9.89138098951680     19.25513117177923      5.55458058496259
