23
orca.xyz
O 	0.076405	-0.111514	-2.097181
O 	-0.383177	-2.152307	-0.155484
O 	0.147545	2.123936	-0.258644
P 	2.223338	-0.358747	0.093866
N 	-2.224448	0.280723	-0.420947
O 	-0.339894	0.072447	1.913050
H 	-0.788330	-2.629849	0.576630
H 	0.377558	2.648198	0.516336
H 	2.851627	-0.164844	-0.909954
H 	2.458714	-1.490271	0.416746
H 	-2.477220	1.258196	-0.288052
H 	-2.572580	0.023560	-1.342643
H 	0.251153	-0.294984	2.579331
H 	-1.058752	0.472016	2.414867
Fe 	-0.099770	-0.021865	-0.405814
H 	2.701430	0.351256	0.934892
H 	-2.766625	-0.258350	0.250264
N 	0.517376	2.924761	-1.447048
H 	0.131702	3.838673	-1.684748
H 	1.197380	2.648187	-2.155143
N 	-0.482507	-3.021911	-1.348933
H 	0.308529	-3.420472	-1.854791
H 	-1.352595	-3.315426	-1.792885
