26
orca.xyz
O 	11.847914	7.058075	12.973660
Fe 	13.053770	7.373406	11.800642
N 	14.646638	7.728902	10.161584
N 	12.021231	8.310760	10.312335
O 	14.485207	8.587998	12.735472
O 	13.743023	5.500717	11.376512
C 	14.142229	8.818189	9.325046
H 	14.534620	9.781373	9.681227
H 	14.475668	8.735860	8.281309
C 	12.659817	8.920494	9.390429
C 	15.874122	8.078628	10.865149
H 	16.478129	7.179570	11.063652
C 	15.590608	8.662368	12.209967
C 	14.753875	6.464035	9.433966
H 	15.751039	6.311890	8.997982
C 	14.373597	5.304925	10.284077
H 	12.154071	9.550944	8.651976
H 	14.621746	4.299959	9.927565
H 	16.417862	9.150644	12.752025
H 	11.011602	8.451412	10.317670
N 	13.790977	6.462603	8.257860
H 	13.438611	7.294390	7.784100
H 	13.397186	5.629705	7.820244
N 	16.785500	9.000844	10.071860
H 	16.742312	9.146706	9.063227
H 	17.534923	9.569616	10.465766
