54
orca.xyz
  O   6.85845709209665     22.80412918992172      6.59052099246846
  Fe  6.24412439934888     22.09422483399987      5.15487976245368
  N   5.89963434303418     20.21407250612192      6.09399738058090
  C   5.70430163823050     19.11316433839247      5.12466959440677
  C   4.68318636092057     19.44568801716829      4.04891540119364
  P   5.09946439950072     21.12001800071437      3.48885290627594
  C   3.73739775585433     22.21317791347764      3.02632017663118
  C   4.30448186490096     23.58688114718304      3.33190883336909
  N   4.84446819304382     23.69204080578126      4.70922653684420
  C   6.28483490697677     21.04935500776417      2.11838460556424
  C   7.65624307821564     20.82438982272482      2.71491193840360
  N   7.96310046953205     21.71461702634003      3.85643913412778
  C   9.21352746381452     21.19876890545374      4.47062551751256
  C   8.14269267724013     23.09219645708253      3.38875501790253
  H   4.71864503687505     18.71303045529713      3.22695607930931
  H   3.46823713228812     22.11708022617124      1.96204095039080
  H   2.84296329349526     21.97806675610474      3.62171468422179
  H   3.65227579366872     19.44988684706340      4.43646168619243
  H   6.21773235410978     22.00298908113784      1.57168441723016
  H   6.02695621919087     20.25078452463628      1.40346916127184
  H   8.43509505591427     20.94493442009093      1.94060636374856
  H   7.73951486084161     19.79109655833964      3.07874153116164
  H   8.99139633282258     23.16643831434581      2.68519929760900
  H   7.23537948743139     23.42737505710366      2.87072855249416
  H   8.33249300094472     23.75093715195242      4.24412008840685
  H   9.96853803196550     21.14631816523346      3.66325666224572
  H   9.00541047166272     20.15752452947532      4.75837210597081
  H   5.12568487641799     23.81695642600636      2.63597997562380
  H   3.53860122741401     24.36901376072647      3.18271237532188
  C   3.71194854970276     23.55698173329012      5.66913895995502
  H   2.87497203796968     24.15527563726252      5.26266782065309
  H   3.39040107736026     22.50765763428851      5.62633623092133
  C   5.48940652491270     25.00459864818838      4.85130876662164
  H   5.94400675844896     25.08715452914673      5.84098562622480
  H   6.26478798226614     25.12055912718478      4.08517665495655
  H   4.74446326274142     25.80802039089535      4.72121512530601
  H   5.40681986174042     18.19944665283256      5.67010487741122
  H   6.68332092834445     18.90696546518193      4.67120345293379
  C   4.68150335129793     20.43068597466747      6.88384299559114
  H   3.83697621522203     20.66744681472924      6.22614043282373
  H   4.43373695731780     19.52116790143327      7.45825511617864
  H   4.84617472587786     21.26049195472096      7.58085778641947
  C   7.00240313282612     19.87785708031435      7.00545972342796
  H   6.76737527376525     18.95067455693050      7.55514169888563
  H   7.92433121659466     19.72862794978689      6.43405473192163
  H   7.14349443026524     20.70477782292726      7.71085140364966
  C   3.98572867718911     23.97109681867774      7.09127164506800
  H   4.07903585025770     25.06148083881438      7.19073791655031
  H   3.12958541175058     23.66412283351495      7.71079212296666
  H   4.89602952478265     23.50583839728697      7.49048315389690
  C   9.76718477232162     21.97129631975913      5.63435659020028
  H   10.07838139489078     22.98777947388767      5.35731202029103
  H   9.05186566472133     22.03285612544293      6.46196267952007
  H   10.66786669132090     21.44991411428877      5.99277833496070
