25
orca.xyz
  O   12.26073571837129      6.99213057247586     13.20670338254040
  Fe  13.33230440954416      7.35903762971640     11.97866338486123
  N   14.73266714530611      7.74552103249019     10.24613086856401
  O   12.20747848228271      8.55221505606696     10.61187152635783
  O   14.94944093369617      8.63918763103639     12.76980132514320
  O   14.20662877321217      5.55631465773913     11.63575230251674
  C   14.27053090779554      8.88406151202447      9.47363229963366
  H   14.79489794007054      9.81874961183948      9.75274447747130
  H   14.48484014618743      8.75911995077406      8.39290993598906
  C   12.81791862336097      9.12964712548088      9.71783828413733
  C   16.08585886002971      7.90219531162649     10.80515045986700
  H   16.75040454816340      8.42735428008260     10.09719373445564
  C   15.97875235416108      8.67741809171006     12.11555588863824
  C   14.68054665573080      6.45752348019936      9.47687570760451
  H   13.62640829820873      6.34186588508798      9.16218494664316
  C   14.89526688251019      5.45100942665238     10.59423524832487
  H   12.28588363712374      9.86930152578042      9.07978509677252
  H   15.40020847931866      4.48929086118131     10.37409024409342
  H   16.86928297497511      9.22733440378520     12.49291034312201
  N   15.53510999825998      6.43126334382739      8.36504909928603
  H   15.09936901019510      6.14517491577534      7.49309840872589
  H   16.40799102139822      5.92733331427837      8.49163789997601
  N   16.62363255016074      6.58746242699961     11.08371193360518
  H   16.66848804725586      6.32247151800456     12.06935629368120
  H   17.52880233625411      6.40775623170125     10.64616708392780
