52
orca.xyz
  O   7.36634104596553     23.10819632396771      5.97147344110545
  Fe  6.31116859410028     22.19747100872141      4.95057864926890
  N   5.97408643916746     20.45905377384283      6.16190904928364
  C   5.80845368305788     19.27176901457556      5.29664769271206
  C   4.75151432000634     19.47261305723613      4.22396160231873
  P   5.09794924566247     21.08965622890242      3.46904784876002
  C   3.66357599997000     22.11671207737777      3.10451193729184
  C   4.14676116975015     23.55964595341459      3.23776157498443
  N   4.97259094308210     23.73316296153582      4.51085991049623
  C   6.15932638906142     20.86905506646528      2.01379840129937
  C   7.55916011789920     20.68439493720207      2.56596910290105
  N   7.89785682726792     21.69983420017800      3.58554336365430
  C   9.13437942317794     21.32198663747795      4.27824942138892
  C   8.07388781789764     23.01377022181265      2.95799345743465
  H   4.78764058320171     18.66471364315613      3.47600791223112
  H   3.24788035405712     21.94080205707303      2.09990029743257
  H   2.87554885779306     21.88732450907778      3.83996713644608
  H   3.73202167408123     19.48450995087733      4.63941569074659
  H   6.07351549295734     21.76688854701036      1.38197439050924
  H   5.84789893933377     20.00649772385090      1.40271031557528
  H   8.30832039151529     20.71240088174069      1.75442383508284
  H   7.64775511973985     19.69670036178657      3.03949379822210
  H   8.86612750781991     22.97407564926757      2.18951058444732
  H   7.13822316653009     23.32593651829437      2.47612650193601
  H   8.35189092571715     23.74262408794641      3.72969267983719
  H   9.98263804555068     21.31572407344306      3.57236137312040
  H   9.32636238904109     22.04104850931175      5.08453151074499
  H   9.02742879980214     20.31431101886725      4.69814296508554
  H   4.88436021209968     23.74543424006028      2.43695878909590
  C   4.06023661781716     23.73027175752324      5.75646571055056
  H   4.72269720855844     23.42905130869112      6.57776644890417
  H   3.34308897168578     22.91833844637651      5.56910691786355
  C   5.66631453341407     25.02201648371087      4.43082159660640
  H   6.24831450278971     25.18327476389702      5.34508779685667
  H   6.34881397813420     25.02749537826105      3.57396572566897
  H   4.93227961656931     25.83160919619619      4.30626112898659
  H   5.55908323059085     18.39549183670276      5.92235692844991
  H   6.78519690927815     19.06599450190803      4.83808571363859
  C   4.75047447072334     20.68720541130206      6.93874802266772
  H   3.91287321990508     20.93371608638496      6.27616805771654
  H   4.49205707817107     19.78431880297186      7.51935317290045
  H   4.90976567590658     21.51559188211651      7.63787568932821
  C   7.09543878477189     20.23789234711307      7.08837529507782
  H   6.89639108169400     19.35636951028128      7.72140342846683
  H   8.01892539951094     20.07242360059223      6.52417412896097
  H   7.22502756801178     21.12249268770383      7.72098634085781
  N   3.40294334436144     24.90432519947777      6.10577912832349
  H   3.96889668868599     25.61590810334844      6.55486860815911
  H   2.80678496059011     25.28762423303538      5.37925089978996
  N   3.08870928893281     24.49484767814899      3.16371080269242
  H   3.17957219547621     25.20166907233993      2.44150462850149
  H   2.15695165982669     24.09328884302409      3.15022421146654
