54
orca.xyz
  O   7.40845459658460     22.89750227127680      6.13932475230755
  Fe  6.33470364302629     22.14811678411615      5.01834545712274
  N   6.15176846794553     20.28074940220946      6.09727187381752
  C   5.64771697084287     19.15074772533164      5.28276196240510
  C   4.52792619740244     19.55305682193956      4.34525438625741
  P   5.12211331771898     21.04747766510783      3.50601638616321
  C   3.80749105928012     22.13628510890117      2.91245594539451
  C   4.22824981951328     23.55690123104376      3.25695625184918
  N   4.95672463324426     23.74534709537495      4.54594782833166
  C   6.28600137026483     20.58866318215538      2.18267241248865
  C   7.67947333378895     20.59400094285249      2.78153959523628
  N   7.93011003620771     21.77372140746738      3.63226733906119
  C   9.26202083613627     21.67358424728532      4.24334373366451
  C   7.86321088851570     23.00806820784090      2.84666760690542
  H   4.28933498712072     18.74484373044493      3.63492612501666
  H   3.66527691368030     22.03240056468598      1.82461820345040
  H   2.86772497063847     21.83226097962233      3.39030212874429
  H   3.59888671413920     19.80048564812848      4.88169595092971
  H   6.18246227948449     21.32699112247863      1.37207202237783
  H   6.04061346546032     19.60382493656107      1.75382063051220
  H   8.44126160463138     20.55134015728609      1.98164892976205
  H   7.83217832183250     19.70564407792487      3.40913806078965
  H   8.55774106108439     22.96595496546018      1.98862251008650
  H   6.84552322770564     23.15858954534096      2.46376605994904
  H   8.14485193793613     23.85264654047538      3.48749176849494
  H   10.03912886143573     21.72853056909934      3.46217168809632
  H   9.38960607531822     22.49097038013578      4.96302072780671
  H   9.36186517408145     20.71867543524401      4.76956809463822
  H   4.90668638868701     23.92100258561148      2.47254864328875
  H   3.35731153531528     24.23432193088639      3.23958600016930
  C   4.04043681695450     23.80028295496488      5.72139690225431
  H   4.67076949652624     23.66643162890502      6.61121409656707
  H   3.64231341183423     24.82875552323197      5.77952685885910
  C   5.61092658378478     25.08987596574329      4.41497887628443
  H   6.29324235528153     25.02789206577666      3.55777559406600
  H   4.80122778389346     25.78145449020725      4.11502863788813
  H   5.32517136022226     18.33375228684573      5.95253086496059
  H   6.49562306649124     18.76271546410339      4.70229421408902
  C   5.20521975236507     20.60820616505081      7.17198884828379
  H   4.23170257591149     20.88247197112151      6.75584830842295
  H   5.06908627825933     19.73941405837357      7.83949438496545
  H   5.59946552138664     21.44531650333541      7.75933361728151
  C   7.43636991429630     19.89931042892592      6.69981144196983
  H   7.29476171896171     19.04070316582100      7.37826149966164
  H   8.14048158434041     19.60887456228946      5.91312077529991
  H   7.84781313092894     20.74932690020333      7.25472953498989
  C   6.32671728233565     25.65312984678584      5.61044468271323
  H   5.67838616488188     25.76409306515589      6.48978322395336
  H   7.20201761403757     25.05344497166800      5.88495915971482
  H   6.67225178006794     26.66282932729597      5.33908802149931
  C   2.87851340454283     22.84370071689574      5.72761818849198
  H   2.11293287555240     23.11092543067357      4.98613726917616
  H   3.18209571560534     21.80438148098532      5.55432367414052
  H   2.39635693765155     22.88680525283704      6.71587063350894
