26
orca.xyz
O 	0.434500	-0.151966	-2.539926
N 	2.555214	-0.533218	-0.493439
H 	2.816051	-0.818297	-1.432746
H 	2.865773	-1.282058	0.120441
Fe 	0.211259	-0.108338	-0.821666
H 	3.133417	0.272615	-0.270892
P 	0.445090	2.114326	-0.713682
H 	-0.171369	2.812510	0.348494
P 	-0.257430	-2.299267	-0.595525
H 	-0.950457	-2.842190	-1.699746
H 	0.802826	-3.226864	-0.450652
H 	-1.089914	-2.701728	0.471815
P 	-2.194330	0.275527	-0.746863
H 	-2.710285	0.289027	-2.062342
H 	-3.098121	-0.639400	-0.153329
H 	-2.772744	1.473751	-0.260270
P 	0.428605	-0.034441	1.483622
H 	0.832409	-1.216372	2.145136
H 	1.375319	0.869243	2.015674
H 	-0.708457	0.306997	2.251189
N 	2.107941	2.825157	-0.637878
H 	2.322208	3.822356	-0.625047
H 	2.975778	2.290532	-0.601379
N 	-0.246390	2.979958	-2.144988
H 	-1.062072	3.592138	-2.125534
H 	0.119311	2.931089	-3.095868
