54
orca.xyz
  O   6.94888438385808     22.87025594513214      6.45795281918894
  Fe  6.27916287555821     22.15566413738259      5.04952391300704
  N   5.96116097129116     20.24850845871617      6.05968329276829
  C   5.40952816489984     19.15981909991235      5.21809663736988
  C   4.35094833259510     19.65304276993865      4.25154275066248
  P   5.12622107274186     21.08131117990772      3.45157104621125
  C   3.98177590268044     22.27162763058980      2.70486798444885
  C   4.46956585831144     23.63403776912071      3.17067016676631
  N   4.81373767594763     23.66656492002950      4.61199306438328
  C   6.40618838055114     20.46985696642886      2.30671884217051
  C   7.73679191495960     20.50175644873296      3.03898432558349
  N   7.97026542099167     21.78124589878994      3.73625577603479
  C   9.23052841863877     21.72123800975703      4.49068363793611
  C   8.06352723932098     22.86061801557989      2.74793607564330
  H   4.06507707888270     18.86864604833588      3.53182025266472
  H   3.98064646029779     22.20593201233572      1.60535249716085
  H   2.95977595256863     22.04542212761223      3.04540949130672
  H   3.43390004034675     19.98409819743038      4.76341648733228
  H   6.41106383807408     21.11130326848327      1.41221915676366
  H   6.17019117939471     19.44872447441334      1.96638940088338
  H   8.56458815829788     20.31453969938265      2.33044871807639
  H   7.78161406664372     19.70445865979063      3.79201035926604
  H   8.80850205821174     22.60547871244995      1.97378173591431
  H   7.09468874581889     23.02500613336730      2.26326052793818
  H   8.37603386557000     23.78740511358804      3.23734769522139
  H   10.08030505373072     21.55461191094142      3.80660470972353
  H   9.37547546667138     22.66525654690832      5.02712348504364
  H   9.19616288894090     20.90659877551370      5.22058467062309
  H   5.36564596320687     23.92303946366481      2.60870646791190
  H   3.70501578609976     24.40613237647734      2.96965955178404
  C   3.59537829955815     23.31531911230946      5.39312856088498
  H   2.73866801579756     23.83020906070723      4.92005411409123
  H   3.42675756035656     22.23833392712885      5.23851454207603
  C   5.27157588555124     25.02645002902356      4.98981189782230
  H   5.42715295770909     25.00767160147351      6.07339295548271
  H   4.43629455964416     25.72094923911262      4.78456055758242
  H   5.00730858089856     18.36441458325610      5.87020310427621
  H   6.24305642854837     18.71120246457828      4.66020978759931
  C   4.99656911224747     20.60287582546781      7.10990514100286
  H   4.05811650447755     20.94859583870618      6.66571154068210
  H   4.78501710761486     19.72080620489138      7.73882413361856
  H   5.42372995842164     21.39685034876962      7.73236634971027
  C   7.19945079402370     19.79488852180440      6.70452779413890
  H   6.98858772389048     18.94751405056175      7.37919771693333
  H   7.91509924901113     19.45763489157994      5.94557884893256
  H   7.62645644899048     20.62552629758625      7.28009856647656
  C   6.53438483174313     25.49516344837755      4.32550360404063
  H   6.46406819280350     25.57877235186438      3.23220853510157
  H   6.77482318391744     26.49835294474763      4.70818436434774
  H   7.37240485140028     24.84221088447229      4.59850430622706
  C   3.64147089700568     23.64637122750125      6.86377799985471
  H   3.47100522301112     24.71609631355020      7.04670012306545
  H   2.83596407179432     23.10085400527160      7.37742270110278
  H   4.59871149563331     23.36439141352466      7.32073048394022
