18
orca.xyz
O 	0.293410	-0.044362	-2.092319
O 	-0.235868	-2.099300	-0.252453
O 	0.450552	2.041591	-0.219902
N 	2.172589	-0.416531	0.130254
O 	-1.985153	0.361235	-0.290861
O 	-0.095700	-0.011175	1.786578
H 	-0.622137	-2.551478	0.506719
H 	-0.340200	-2.672113	-1.021318
H 	0.680870	2.508493	0.591866
H 	0.701297	2.602004	-0.963703
H 	-2.255565	1.286900	-0.346690
H 	-2.562774	-0.109963	-0.904763
H 	0.610026	-0.097424	2.436657
H 	-0.919388	0.088721	2.276101
Fe 	0.128159	-0.030860	-0.416466
H 	2.115881	-0.037969	1.054091
Br 	2.708630	-2.228360	0.175380
Br 	3.519654	0.476668	-0.849394
