54
orca.xyz
  O   7.38307238056795     23.15632933040488      5.94193069414589
  Fe  6.29482984676820     22.26488682863974      4.93515438617892
  N   5.93324615903196     20.54362721991156      6.19424283083106
  C   5.83216483291268     19.36958964815834      5.30905344072734
  C   4.78710813562217     19.54231569755388      4.22203832977389
  P   5.12343756592835     21.13342059036068      3.39997235363302
  C   3.64952215809424     22.14901232602038      3.11737784672822
  C   4.12142561615381     23.59626373115609      3.26147042079158
  N   4.84511341230932     23.78218477574909      4.56092581299147
  C   6.06632892487886     20.75021419378855      1.87934284010008
  C   7.49463270265628     20.43970522921833      2.30148663443773
  P   8.04306332100213     21.61557160829783      3.60433469986487
  C   9.49911162059697     20.89491600653618      4.38449161080585
  C   8.65955630279341     23.10370662481530      2.78473882476867
  H   4.83512235241837     18.71185788404203      3.50012500638672
  H   3.19377872484869     21.97812382079486      2.12967227738066
  H   2.90136613585105     21.86767727680647      3.87343907653780
  H   3.76387194072390     19.55551695133377      4.62725546873611
  H   6.02253230848178     21.62838265698245      1.22048307758714
  H   5.59866298703197     19.91077452749012      1.33852131424228
  H   8.19401565218439     20.46893516293661      1.44898850852066
  H   7.56842348124237     19.42921096047453      2.73566712293377
  H   9.52460818522691     22.83453204866005      2.15686502610104
  H   7.89083041282680     23.57226235208517      2.15776461559605
  H   8.97083239807966     23.81124921159132      3.56859094065043
  H   10.30408180641001     20.81785283968708      3.63510853777152
  H   9.81777355594123     21.55807970945328      5.20283956053177
  H   9.28290327052161     19.89250639527172      4.77903793603937
  H   3.22928258126531     24.24643355558299      3.28271217283036
  C   3.90703851240795     23.68035977578763      5.68282160250876
  H   4.45332866092975     23.82694531767592      6.62243073162703
  H   3.11816369706248     24.44530256542005      5.60942601861145
  H   3.42676595075401     22.69807600526331      5.69164292867119
  C   5.55508690616414     25.09081836492163      4.62352516776987
  H   6.05290828626462     25.11199324626177      5.60000506519601
  H   6.36293259506485     25.05655144132766      3.88076776211315
  H   5.61892798437924     18.46634282621613      5.90989799172023
  H   6.82446536446673     19.22364369920695      4.85718553324172
  C   4.71762070906036     20.69334381969976      6.99620740066331
  H   3.83880871671369     20.79617455556755      6.35010268982928
  H   4.57319610290613     19.81194251137177      7.64576996699304
  H   4.80498224841267     21.58375636057162      7.62915807016576
  C   7.08300571144278     20.37776683315264      7.09387922421277
  H   6.98075153741086     19.44822221227048      7.68017457328617
  H   8.00690088089385     20.33940841151450      6.50879541477411
  H   7.14103225482568     21.23338061262649      7.77457303037369
  C   4.69591808391162     26.32090646916597      4.44204050573322
  H   5.35176272586715     27.20438715473287      4.48265709712275
  H   4.17123175156209     26.35153096730643      3.47638228421699
  H   3.95402264935026     26.43921168769576      5.24486302140643
  C   4.99751154680438     23.97881554777062      2.09157082003513
  H   5.96396610718191     23.46356064726489      2.17614186297194
  H   4.52081463925902     23.67529235769974      1.14926726220813
  H   5.18801529821938     25.05678597937265      2.03588455721735
