53
orca.xyz
  O   5.92523644269355     23.07813272561937      7.12233617213342
  Fe  6.40254584740093     22.48608459497828      5.55691316181004
  P   6.03203657260935     20.33314753672278      6.08516523887248
  C   5.79395476988562     19.05618568531053      4.80438076741437
  C   4.71312477265228     19.22946533493469      3.74090064531116
  C   4.21179805905236     21.70224729656828      3.71436597816189
  C   4.44687427827709     23.10343303274801      3.15302810834528
  P   5.08430064878388     24.04130439362642      4.57604761870298
  C   5.86582561241244     20.69518500553376      1.96850397017245
  C   7.26229323197189     20.76984668658272      2.55528333804499
  P   7.66526583094276     22.10532908563430      3.72560390702596
  C   9.27383380765416     21.59557869450552      4.40118470241989
  C   8.10228057802343     23.51804590652796      2.67342596635522
  H   4.80337871737083     18.36669704909692      3.06134541413418
  H   4.98363234009759     21.66738627709847      4.60770818330320
  H   3.73795653193349     19.09147145147310      4.23342659390378
  H   5.68954420507785     21.56468658470264      1.31576070027917
  H   5.87221132045924     19.83839845744722      1.27441697273707
  H   7.99477938252918     20.88643790958152      1.73755897661298
  H   7.53711603528064     19.83579151402355      3.06018122485554
  H   8.92033126443013     23.22261683746315      1.99710802817820
  H   7.24652091779869     23.84361997895761      2.06699528648639
  H   8.44380167265607     24.35441543134991      3.30081106552773
  H   9.99420430513610     21.42276682582516      3.58490603068905
  H   9.66859167939490     22.38435401331262      5.06107685798524
  H   9.15333570278894     20.67103729209407      4.98328002295136
  H   5.23837811143354     23.09101946236369      2.39340678533543
  H   3.54776322649124     23.54119123766541      2.68924765654745
  C   3.68034895572332     24.34943044161833      5.66414594344549
  H   4.04856386294251     24.90694663570380      6.53798808485814
  H   2.91005273150410     24.93680330094093      5.13892514667469
  H   3.26536892671169     23.39549239549996      6.01445696710300
  C   5.63590926273862     25.67594447587951      4.05472327195699
  H   6.02192564009160     26.21068534170458      4.93710249108157
  H   6.42269675398712     25.61900513574795      3.29358227972220
  H   4.77314374933264     26.23237381463761      3.65257561562281
  H   5.54934930783771     18.15086551277263      5.38937464079176
  H   6.78361838376835     18.85155320074809      4.37347260260505
  C   4.37663872743946     20.38263456890326      6.99820981229226
  H   3.67515999967897     20.84892271900809      6.28492091371639
  H   4.10267718645287     19.31662225616645      7.09809839050597
  C   7.17011867356069     19.58387826903703      7.27212453653383
  H   6.78279649526460     18.60026858513791      7.58513429551229
  H   8.16980626983917     19.45569778151143      6.83289345216087
  H   7.25059743133267     20.24691029489912      8.14380004887578
  C   4.66081499931459     20.49564976380379      2.87969802520512
  H   3.81962060329337     20.33488849660553      2.18030272085938
  N   2.91994555972631     21.55170564770805      4.24463001075959
  H   2.28310074108663     22.33013938673468      4.12403432468163
  H   2.46361370540920     20.66005980261177      4.08703637506101
  N   4.37180864743624     21.03476532110790      8.23427973972413
  H   4.58918860485751     22.03084896655668      8.18085814465029
  H   4.86866437607156     20.56882130307642      8.98765386032395
