52
orca.xyz
  O   7.42290276612009     23.07798946529350      5.97669352063748
  Fe  6.34220676546466     22.17300400326017      4.97669954189384
  N   5.96623575393898     20.46896682171915      6.12736760490723
  C   5.73777449693095     19.21081667464514      5.26319691361917
  C   4.69298616278268     19.50838782137577      4.18964351735043
  P   5.06210503313081     21.13472837739043      3.50707910338508
  C   3.65999079394428     22.22985574048864      3.16666602707409
  C   4.24625595763795     23.62331118638726      3.30034207018287
  N   5.01467101374082     23.80511067571618      4.55531720905327
  C   6.08644917446630     20.84960492145438      1.98662185756250
  C   7.49244893803258     20.68089328934533      2.54598052509942
  N   7.86768549773912     21.69406851771776      3.54416363418848
  C   9.11787558733258     21.29781566529688      4.20412309351227
  C   8.04508761609808     23.00729522370251      2.91544542609020
  H   4.76554038711152     18.77686043393575      3.36559749844420
  H   3.23187544267192     22.07069179765716      2.16362939838434
  H   2.86171435782664     22.03179056744592      3.89847973144599
  H   3.66988346694019     19.48703267528073      4.59524857261509
  H   6.02427173516982     21.79156442188516      1.40382494861548
  H   8.23060467358398     20.68589384816811      1.72245306265355
  H   7.55293468675095     19.69153385998507      3.02209778276305
  H   8.81819186520041     22.96011241206196      2.12804322872173
  H   7.10248191558644     23.33327441347927      2.45832469136325
  H   8.35330820667266     23.72890081839496      3.68270113891869
  H   9.94453910249282     21.26883574295219      3.47356087874209
  H   9.34598972342346     22.01967710765258      4.99816924373280
  H   9.00225709898780     20.29712759610918      4.63797943952747
  H   4.93753761694467     23.81806608438761      2.46657058800647
  H   3.45497901462390     24.39205975422417      3.24223220058185
  C   4.10793478320717     23.83293418752409      5.71165477171601
  H   4.69650767911981     23.95572753911687      6.62853678341522
  H   3.40581545478267     24.68019089680033      5.62423490239203
  H   3.53129962518144     22.90474209656631      5.77000314849300
  C   5.73584082856531     25.08752195679026      4.49855724111899
  H   6.33890742525366     25.20280529790046      5.40596447837751
  H   6.39669457171924     25.11001826432723      3.62557619107560
  H   5.01454349648489     25.91839917454956      4.41904351284976
  H   6.71724723061103     19.07588132547198      4.77927144532053
  C   4.76566890326191     20.73430508433737      6.92502199074284
  H   3.90712542033945     20.92643720541417      6.26980328804568
  H   4.54441478004046     19.85853825757879      7.55711806460847
  H   4.93705632659424     21.60401971862925      7.56903748139456
  C   7.08792749724375     20.20548871447719      7.04055699036882
  H   6.86171017674833     19.31283862615814      7.64524385374649
  H   8.00543319393632     20.03492785791019      6.46646942062511
  H   7.23851234018197     21.06950610992969      7.69588620360256
  N   5.42750404655301     18.09444217088283      6.04900284255850
  H   4.47619512710556     17.74879977868223      6.00579855340400
  H   6.10716838641105     17.34422353740664      6.07522306484498
  N   5.67106344157043     19.67271790349836      1.29227257629601
  H   4.90508901934900     19.85525346015590      0.64703355412355
  H   6.42943617593411     19.25651311190170      0.75267928375059
