52
orca.xyz
  O   6.64376337485748     23.19971559198521      6.29762407748121
  Fe  6.05497351741374     22.24985736881325      5.10506322432513
  N   5.57312125874679     20.43570811696233      6.33463621896943
  C   5.83092203281764     19.39088448707578      5.30285197625193
  C   5.24397931413512     19.69148001115650      3.93624065242229
  N   5.37878682820103     21.11190044966068      3.51774733984458
  C   4.02665170842055     21.64573074011781      3.22827308284931
  C   3.92814213027697     23.15930508278744      3.15897084103385
  N   4.53344575817438     23.73583880867019      4.46777473068447
  C   6.26553986414772     21.28488265484258      2.29768562574302
  C   7.69819956149624     20.84883623894308      2.55821995660840
  N   8.37046029433950     21.55595681447242      3.66120268615534
  C   9.41737745076476     20.70599173761622      4.26544190774818
  C   8.93417376153498     22.87649107952069      3.28671936870349
  H   5.75044734483874     19.03237521299945      3.21738439937494
  H   3.69098361315805     21.22070758378248      2.26531207598346
  H   3.35245922907911     21.28352510227554      4.00619760432331
  H   4.18639657455483     19.40976245987381      3.89184317439546
  H   6.25078317405690     22.36874211296847      2.12618304175492
  H   8.25083602975195     20.97841799068053      1.61432022966779
  H   7.73035086642468     19.77542245443859      2.78765424134302
  F   10.17399694649665     22.80038314074148      2.84651399157239
  F   8.18465181894829     23.39656412717981      2.31857058378174
  F   8.89874291309184     23.66986592157583      4.34786300022658
  F   10.31007680263196     20.32288146746217      3.36867063744692
  F   10.00480097315697     21.35956311387648      5.24523831734402
  F   8.85104926662643     19.59270721333839      4.74521124828824
  H   2.85324334784853     23.41735199591229      3.21921420059892
  C   3.43252599068355     23.91577956597004      5.48476158881643
  F   3.94598606644810     24.06400782003746      6.68105139467834
  F   2.69002548982996     24.95489743646239      5.16515684429159
  F   2.67617867979603     22.82426455254963      5.46782600654693
  C   5.26031809829381     25.04142042990353      4.27681507102129
  F   5.48120388157759     25.61391683478091      5.43459874515556
  F   6.41489579993669     24.75771653924765      3.69671307794583
  F   4.56250205446768     25.86185615045232      3.51167720852993
  H   5.46918245947403     18.41245871978472      5.65755408597521
  H   6.91795959734950     19.31708494113084      5.23093052386772
  C   4.20803675980750     20.30993424800209      6.93677190921857
  F   3.33867279524757     20.13024186537700      5.94588861525426
  F   4.15257032227834     19.26941023451425      7.73921516004339
  F   3.90964608584777     21.40967768151615      7.58760452412618
  C   6.62946237344745     20.35369161647930      7.41050319130415
  F   6.79525071799994     19.10856331693621      7.80029326463243
  F   7.76436969744313     20.78851588522998      6.87143959881344
  F   6.30058263856383     21.11631313807074      8.42173458800021
  N   5.68227786009018     20.65482001735133      1.17160401334278
  H   5.96487114817103     19.68837975242166      1.02143516094998
  H   5.82304408771887     21.16853986482433      0.30580875675833
  N   4.55843030065508     23.66719142439515      1.99660180754233
  H   4.38219420830968     23.04284898455452      1.21385388156357
  H   4.24273837739291     24.59885447258924      1.73546167006885
