26
orca.xyz
  O   0.53124583030145     -0.54150813539340     -2.43994144037309
  N   2.67940166062849     -0.70955958969648     -0.46257638141052
  H   3.02997540071460     -1.07881441383261     -1.35014525223977
  H   2.97577298353155     -1.37173600623501      0.25862030634069
  Fe  0.49954977342115     -0.27191363743497     -0.74257680376488
  H   3.18851207933648      0.16080410261677     -0.28550891659340
  P   0.63636156755660      2.01269409808281     -1.05628280549021
  H   0.23734432776120      2.83355901043762      0.02333051305270
  P   -0.51046518195562     -2.37871075687413     -0.61633194949586
  H   -1.40028781056009     -2.65595302242759     -1.68312842907686
  H   0.41791251044897     -3.44564797752372     -0.75063427597226
  H   -1.25622723584356     -2.81074023913230      0.51102657405456
  P   -2.12595413271736      0.42532176354932     -0.68453940407953
  H   -2.68743666388727      0.43868948799187     -1.98532934587809
  H   -3.07771226796005     -0.41296278678571     -0.03316038207386
  H   -2.58045337834455      1.68084982327559     -0.20104328608160
  P   0.42520156980371      0.00318096018965      1.58424710671370
  H   1.04090613964111     -1.00398714765891      2.37576490717138
  H   1.05878000783287      1.14939049566360      2.13446476876750
  H   -0.83560668301477      0.08258054081903      2.22998200333791
  N   -0.46256099150112      2.44599858445907     -2.23207687395757
  H   -0.64275179399400      3.42942942594491     -2.43733938068674
  H   -0.48946315964784      1.85024031764000     -3.05721921396102
  N   2.24089674814451      2.47481730300843     -1.17395952026827
  H   2.48537587462903      3.44803416396417     -0.98299417876567
  H   2.76199842943179      2.10718838358406     -1.96789953235680
