22
orca.xyz
O 	0.467376	-0.038643	-2.089755
O 	-0.481671	-2.075963	-0.368335
O 	0.249531	2.107456	-0.253993
P 	2.318097	-0.422269	0.249869
O 	-2.095385	0.366525	-0.551607
O 	-0.497522	0.022721	1.720216
H 	-0.736718	-2.604075	0.396395
H 	-0.306844	-2.682440	-1.096974
H 	0.170856	2.653369	0.536269
H 	0.617854	2.658237	-0.954196
H 	2.996614	-0.519732	-0.735076
H 	2.467474	-1.439893	0.868033
H 	-0.006141	-0.079705	2.542122
H 	-1.415940	0.175113	1.969744
Fe 	0.058350	-0.011146	-0.446205
H 	2.798173	0.459206	0.907538
N 	-2.543285	1.658210	-1.118471
H 	-2.121098	2.565739	-0.921930
H 	-3.321934	1.778671	-1.766153
N 	-2.943355	-0.665451	-1.189082
H 	-3.822211	-1.020705	-0.812402
H 	-2.739357	-1.131498	-2.073097
