25
orca.xyz
  O   12.40849378862153      7.67904722909754     13.48010873426969
  Fe  13.41065779726764      7.70053489638924     12.14302977522328
  N   14.77738092578145      7.75826168713544     10.28336568494048
  O   12.18292619763388      8.46738137211703     10.56898636206084
  O   14.89537894495589      8.89853566029927     12.69990982330539
  O   13.82460998111739      5.65619742442641     11.71132070281466
  C   14.24708647081933      8.85429043417990      9.43536245557548
  H   14.56688163085075      8.72524456196896      8.38566982727362
  C   12.73933652890852      8.85855059839253      9.54525899226267
  C   16.10225572101119      8.03817816812864     10.82303959061433
  H   16.54006829251060      7.08859990054181     11.17688289562213
  H   16.79180070327396      8.46211536805210     10.07347927998176
  C   15.97054010952984      8.92426601892231     12.03888988157344
  C   14.67979713493132      6.45707716780740      9.63717828678862
  H   13.88825956534816      6.46263111440015      8.86091554899960
  H   15.59793161898342      6.16104215947103      9.09389246569196
  C   14.27132129813264      5.38867881126547     10.60214637946615
  H   12.14738727721121      9.34728042564021      8.74154339986856
  H   14.35410861845583      4.32568040361055     10.28434749775866
  N   16.99742555268437      9.64245553310726     12.43914863932103
  H   17.86856123813811      9.68230930258470     11.91825850527481
  H   16.93367969448565     10.17205539087832     13.30811430006860
  N   14.66629630801175     10.13366795378030      9.89064326474927
  H   14.91788480454469     10.79547693746595      9.16016612636360
  H   14.09211021677837     10.57249870142248     10.60814805420952
