25
orca.xyz
  O   12.42552285365552      7.50631222183702     13.46544712100996
  Fe  13.43133896117506      7.64878539092395     12.13934970692082
  N   14.78021308231324      7.79016096551172     10.31186597375825
  O   12.26205985547641      8.67843679885973     10.66696823155894
  O   14.93668827783483      8.80019571486294     12.77552867006793
  O   13.95357006620982      5.62588354888883     11.65210044883093
  C   14.33699694374571      8.93889268802074      9.53210478547010
  H   14.84912407462809      9.86582570606435      9.85732526216884
  H   14.58311908829009      8.85111831953238      8.45645740716668
  C   12.87943738463156      9.19859312852872      9.74411949472533
  C   16.11691724783130      7.96685817501886     10.87154025972350
  H   16.50365009371641      6.98777941822971     11.20432921201127
  H   16.83850827801745      8.35648913077705     10.13482733087875
  C   16.01139461780231      8.81786739793647     12.11890828569795
  C   14.66806339507358      6.51848812658956      9.53349589838423
  H   13.70902895402287      6.58573427794685      8.97914480703801
  C   14.37404691448728      5.40625094801930     10.52428911047310
  H   12.35604802617922      9.90335576881252      9.06065463221396
  H   14.52449103483096      4.35800533398774     10.18092499933114
  N   17.04996587485291      9.52065029336789     12.51953384469531
  H   17.92176662248621      9.54923939352536     11.99808662383496
  H   17.00363941861997     10.02997939531283     13.40256416151837
  N   15.72247678356844      6.29597571662908      8.63258163689842
  H   15.46217673477495      6.13580427206386      7.66462585178726
  H   16.44684722099669      5.64626982166201      8.92451748748997
