25
orca.xyz
  O   12.13600591881808      7.72247000686267     13.26141102953383
  Fe  13.21002782437738      7.77635833535284     11.98523272210004
  N   14.71296136727718      7.78209183161685     10.18197885078272
  O   12.14705200832880      8.49919514448382     10.43375992107037
  O   14.74792243287179      8.90980311212082     12.61489407915854
  O   13.66389958364862      5.71905376000619     11.59087438647876
  C   14.25060273409439      8.89668526989898      9.36716686380610
  H   14.61402591867274      9.84018543567031      9.81014897528908
  H   14.63342975450426      8.86032151808245      8.33124201560708
  C   12.73652870283883      8.96175406693936      9.42574192143396
  C   16.01441486976414      8.00566773486245     10.79608028486411
  H   16.40740728485531      7.04311529054653     11.16593691860438
  H   16.76128905559665      8.40389279350465     10.08557158251885
  C   15.85277298340595      8.88921653712283     12.01778201010174
  C   14.59490762787021      6.48393273708461      9.53466749634195
  H   13.82050803775171      6.50995152904119      8.74355792021350
  H   15.51729676463808      6.15961831575879      9.01491298980966
  C   14.13573227867941      5.43276978172411     10.49807985234097
  H   14.20610508818484      4.36572981014509     10.19038624196464
  N   16.88682446340752      9.58061230729183     12.45355254761109
  H   17.78542058475806      9.57655662906756     11.97950769042621
  H   16.80600663280151     10.11292324900525     13.31981360237338
  N   12.07560419174975      9.53675158485348      8.44096632652931
  H   11.06477875391538      9.65198652500779      8.51446965096235
  H   12.53804759309006      9.90655135792759      7.61544557772113
