48
orca.xyz
  O   7.41464649773989     23.09419412313123      5.96983783383090
  Fe  6.37333434811517     22.17036068817735      4.94974553689053
  N   6.04677032741767     20.42384681766496      6.15450462886203
  C   5.84308332798706     19.24152643979415      5.28815866002813
  C   4.75442863152584     19.46371110308004      4.25535487207375
  P   5.10461103881695     21.07186034917016      3.48658921501212
  C   3.68514478865000     22.13716371571752      3.14331629427001
  C   4.25585546108753     23.53876142425622      3.26251378314291
  N   4.96582504319247     23.77004120299162      4.53890267675544
  C   6.15061227432435     20.85341238811083      2.02006119650394
  C   7.55866508957938     20.68233585688244      2.55288048484075
  N   7.90774408683788     21.70343430851800      3.56774719140146
  C   9.15270263717478     21.32260720162772      4.24801201927243
  C   8.07635536697936     23.01931260235447      2.93799003962352
  H   4.74659572021983     18.65451014585902      3.50786318399081
  H   3.26038096358236     21.97595504491740      2.14035416020572
  H   2.88631130137981     21.95003588095629      3.87694191187220
  H   3.75435994505220     19.48622036426077      4.71803360784757
  H   6.04701070329322     21.74623027703174      1.38356245054782
  H   5.83829870981000     19.98560398647503      1.41650226316112
  H   8.29781851095688     20.71760859062948      1.73291366797701
  H   7.66398025498599     19.69721745053753      3.02771467788771
  H   8.86580794027013     22.97935707533412      2.16714647526795
  H   7.13909273453576     23.32695362820141      2.45715682528095
  H   8.35763906322540     23.75021617531862      3.70672687595406
  H   9.98476883555962     21.28732145726722      3.52433582989799
  H   9.37264381113237     22.05686147258087      5.03275650907040
  H   9.03722238777618     20.32721707237855      4.69357862266672
  H   4.99611502231785     23.70907479675324      2.46636127095207
  C   4.05302474529730     23.79967937594497      5.69173562784844
  H   4.64729311842906     23.85778752898766      6.61084550676283
  H   3.40066825566816     24.68526859668673      5.62969524055944
  H   3.41655990466896     22.90948788538772      5.70923714825640
  C   5.69132253801785     25.05370638464737      4.48534969080950
  H   6.28924725292906     25.16275223723655      5.39602615051595
  H   6.35236165060428     25.07539866765074      3.61261814347242
  H   4.96748183513678     25.87971306934354      4.40177229388662
  H   5.59031144211404     18.37629999779229      5.92585623276160
  H   6.80797381951472     19.02583955401501      4.81111150181985
  C   4.82755053300936     20.79826826127461      6.85396305867411
  H   4.06927707930228     21.09072240421813      6.11856414078547
  H   5.04877107247597     21.64086987345631      7.51875175290360
  C   7.14602823882155     20.17392831545245      7.10006042257461
  H   6.89168308046276     19.31986628892091      7.74810565689603
  H   8.06180805785614     19.94863233580952      6.54428748409397
  H   7.30996489294666     21.06652169077685      7.71251787999366
  Br  4.04301753466275     19.40708988449225      7.92123887234549
  Br  2.86398788805591     24.82849931962580      2.91690206613143
