52
orca.xyz
  O   7.40221301968974     23.06982218086108      5.98910366729124
  Fe  6.33887984152103     22.15705561822903      4.97383240958119
  N   6.01601233903086     20.41571860034405      6.09775009649240
  C   5.76400820982223     19.24530875968274      5.22546687509290
  C   4.68237147734199     19.51337551229222      4.19325811501847
  P   5.07248576247797     21.13040735181188      3.48357986502498
  C   3.67437045189941     22.21069251793354      3.10047140511034
  C   4.24205133292948     23.60714036267561      3.27726218552084
  N   4.98318090296509     23.76970544096296      4.55281398065573
  C   6.11924786756114     20.85330068611975      1.96521768076905
  C   7.53528500300762     20.70590171030740      2.51214240040577
  N   7.88168829923995     21.70517016834838      3.53396931223844
  C   9.14230500693731     21.33500685973155      4.18898689354266
  C   8.01837976892041     23.03581205989884      2.93274975124990
  H   4.66021919219049     18.75052253519600      3.39796895136677
  H   3.30309925126167     22.04912921864388      2.07506052051998
  H   2.84170319112004     21.99694967469542      3.78803214327171
  H   3.67474233474282     19.54649901907560      4.63530652495796
  H   6.03075352631065     21.79687046122902      1.40159248946174
  H   8.26427846811966     20.75009263388388      1.68263907753061
  H   7.63393526348139     19.71119839386775      2.97166445509189
  H   8.78458412222741     23.02815415811185      2.13725470604008
  H   7.06261851412652     23.34776819718031      2.49283115877984
  H   8.31386074542233     23.74909223515506      3.71279960922029
  H   9.97300393454818     21.36249625955523      3.46302984625323
  H   9.33881992093827     22.03740140085850      5.00865938441659
  H   9.06377065174543     20.31578906439104      4.58618948237724
  H   4.94924031214093     23.82933158182940      2.46397063286664
  H   3.44511426157414     24.36999762730953      3.21950333415651
  C   4.05598929078466     23.73867225294809      5.69105341146597
  H   4.62357361104965     23.84975371267588      6.62301583356741
  H   3.33031096836840     24.56724090165141      5.61667871980172
  H   3.50396205990916     22.79291891349268      5.70844223951904
  C   5.67570841078054     25.06873946686495      4.54678766721074
  H   6.25642606723217     25.17315683819076      5.46994427513330
  H   6.35535863845697     25.12856679058153      3.68993041692427
  H   4.93772839410507     25.88534326676196      4.47207880201072
  H   5.48788135676865     18.39545344467789      5.87376398178221
  H   6.71474254146787     18.99078779395827      4.73817630931012
  C   4.80599675093749     20.65206937407669      6.98366880293876
  H   3.98871792252614     20.92741367779605      6.30322050398710
  H   5.07101073623343     21.54032168854421      7.57632370115252
  C   7.17064284763295     20.13015781380965      6.96296475066931
  H   6.96563049970375     19.23041368713181      7.56459037103238
  H   8.06174220111488     19.95576651033960      6.35188569911323
  H   7.35586246650728     20.98799820532317      7.61919352428749
  N   4.48046124859100     19.52699775446051      7.75600457064965
  H   3.55805198002584     19.13402700625482      7.61085030858734
  H   4.70512267060506     19.57889257226102      8.74331876125967
  N   5.63588516098205     19.77548084826650      1.18330194533213
  H   5.53947869852005     19.97577819650888      0.19255071116163
  H   6.13263055040958     18.89923733669731      1.31458263465473
