22
orca.xyz
O 	-3.308403	1.297297	1.838204
Fe 	-2.916033	1.658037	0.223295
O 	-4.086936	3.392292	0.236384
H 	-4.118231	4.161867	-0.344446
N 	-2.355269	2.212342	-1.829093
H 	-1.786788	3.056937	-1.899370
H 	-1.816193	1.491715	-2.309375
O 	-0.883529	1.272939	0.539609
H 	-0.593695	1.016228	1.423742
H 	-0.091817	1.495821	0.035517
N 	-3.978471	-0.037834	-0.417199
H 	-3.580011	-0.873849	0.011179
H 	-4.937835	0.012015	-0.073407
H 	-4.547955	3.632057	1.049768
C 	-4.058109	-0.303422	-1.911696
H 	-3.304256	0.317705	-2.436944
H 	-3.855939	-1.376398	-2.107460
H 	-5.072194	-0.045209	-2.280309
C 	-3.550977	2.468675	-2.731854
H 	-3.479749	3.490819	-3.156266
H 	-3.558467	1.725108	-3.554974
H 	-4.486494	2.376987	-2.142516
