52
orca.xyz
  O   7.38418615266497     23.01422348814053      5.99406957230166
  Fe  6.36462942237273     22.11937470115945      4.93077364944677
  N   6.01402283247026     20.37903007673002      6.07752683700805
  C   5.63025665235174     19.21590240262074      5.24588671436200
  C   4.55565713968543     19.55256630240165      4.22872227204805
  P   5.10507726194340     21.07574056251020      3.41188802833669
  C   3.77447228261454     22.20480330885973      2.92379152258855
  C   4.33617778715797     23.59366066054169      3.16468833624473
  N   4.99487187583483     23.72669034276609      4.48620708412365
  C   6.22624406179223     20.70687924603945      2.02979342352646
  C   7.61839709509882     20.60978040310868      2.62280139124648
  N   7.90956605961425     21.70791091069982      3.56609979151107
  C   9.25658501402178     21.45677257935008      4.22038348147837
  C   7.97577029178050     22.99317069506504      2.86442554613507
  H   4.40442873969975     18.72643224694795      3.51545792976243
  H   3.47972018750998     22.07070765756197      1.87053047904688
  H   2.88599014857653     21.99409820060538      3.53869320189751
  H   3.58241928094455     19.75554675673980      4.70335651379856
  H   6.14206215261680     21.52685641379012      1.29924153680229
  H   5.94157857730235     19.77831892492685      1.50911316986812
  H   8.38824415981756     20.60737930792432      1.83238804535745
  H   7.72700447884012     19.66808256345188      3.18038905472712
  H   8.76616620337384     22.95489363181248      2.09607123074645
  H   7.01698682843160     23.21434238646783      2.38088341698744
  H   8.21730553149898     23.77907943877674      3.59196542998616
  H   9.33753653759502     22.23935545077501      4.98901628657124
  H   9.15212197926925     20.48708866736497      4.72735414531033
  H   5.08951799100289     23.83201641272483      2.40004667053997
  H   3.54373210915673     24.35833945103263      3.07537705292222
  C   3.99862032396987     23.64158294141091      5.55959193911485
  H   4.50336686115290     23.72411834770401      6.52899331533798
  H   3.26334478963318     24.46026018368586      5.47004063171672
  H   3.46332442136462     22.68673261903269      5.50644157450176
  C   5.66534212611773     25.03471235828578      4.56013870738170
  H   6.18056215974162     25.12570369318826      5.52276138388672
  H   6.39992909051799     25.12303164086738      3.75234522360228
  H   4.92189560680840     25.84316318019804      4.45519770646121
  H   5.29529689316891     18.41207554628444      5.92496599751194
  H   6.53593127546675     18.85725546629863      4.73921488173879
  C   4.90029749991097     20.69503349826262      7.06122328672874
  H   4.04239128001953     21.00708067951819      6.45202486731625
  H   5.26617634700107     21.57376557293976      7.61393725800816
  C   7.21702859135685     20.02964857634432      6.84591787327354
  H   7.00383085802212     19.16329921331396      7.49215944449786
  H   8.02936288279790     19.76452583896153      6.16103749805185
  H   7.52846232449997     20.88887102843213      7.44997897115194
  N   4.57973588129917     19.59929253842719      7.87780420424065
  H   3.62460286526874     19.26538526051472      7.82542250465593
  H   4.89596332672116     19.64928791294458      8.83991752139249
  N   10.30533401544370     21.46257599928663      3.28332711066299
  H   10.77471048701037     20.57592770349905      3.13759218343410
  H   10.98038184580555     22.21217100130350      3.38770709039014
