24
orca.xyz
  O   -2.46514697862418      1.15346925904381      1.60491389785104
  Fe  -2.53111695646268      1.44143913460548     -0.01303585537067
  P   -3.82739940835942      3.38111193467557      0.62083139668214
  H   -3.09391769382671      4.26644394545391      1.44889517153065
  H   -4.39988979392623      4.26204678052644     -0.33396495863274
  N   -2.61475784318875      1.88446886105649     -2.06905593952797
  H   -2.24710754404481      1.10263368351188     -2.62292052955237
  N   -0.44020930066735      1.35018377013342     -0.04098892061994
  H   -0.02791074217651      2.25551200606652      0.21177568587316
  H   -0.13722963980438      0.70664694681632      0.69861649262315
  N   -3.57756962558314     -0.33970414018156     -0.26895506355002
  H   -3.16399299800687     -1.01041023814741      0.38770864032544
  H   0.02544475198498      1.05513643676020     -0.90485033481866
  H   -4.93298230342103      3.05880602435535      1.44149953163338
  H   -3.49634474052892     -0.76534326337863     -1.19799320261146
  H   -3.59626478170149      1.95054295517165     -2.36009560991539
  C   -4.99230228886961     -0.13318114099489      0.07487942172525
  H   -5.44063182933614      0.61044917444641     -0.60207827147933
  H   -5.56688042285105     -1.07093681992848     -0.01665550437360
  H   -5.05965571840278      0.22076329100447      1.11292297813883
  C   -1.92037694507848      3.11721338925885     -2.48862492700025
  H   -0.84424295484709      3.03139327768913     -2.28376756352045
  H   -2.05179919349541      3.30917418685327     -3.56610194757018
  H   -2.31570874727170      3.97855804181857     -1.93142111817887
