53
orca.xyz
  O   5.92531344589696     23.09496656591532      7.15412322016621
  Fe  6.35145378631075     22.48472069456611      5.56513003911617
  P   6.01340884706117     20.33198173267153      6.09247325956425
  C   5.77530550964882     19.04789767590918      4.81831910944743
  C   4.70807649058855     19.22507635392998      3.74168804922123
  C   4.20385671709901     21.69705750441231      3.70064135309593
  C   4.43868881131552     23.09796772887819      3.13822978492550
  P   5.07006330033981     24.04204360485882      4.56071094171192
  C   5.89868311703509     20.68910616736426      1.99465785074351
  C   7.28171469867538     20.77218153944929      2.61223934135611
  P   7.65596093794420     22.12443652301363      3.77218185131822
  C   9.26283687049736     21.64552906579308      4.47229415398925
  C   8.08869750221820     23.52740951690602      2.70545983391329
  H   4.80225252061291     18.36073980657429      3.06473673414188
  H   4.96484231618544     21.66465805962167      4.60385163751295
  H   3.72655850083892     19.09256099611063      4.22279013418761
  H   5.73561349077646     21.55451441135642      1.33311911343852
  H   5.92398161750556     19.82862978153183      1.30556735081405
  H   8.03148784293759     20.88070672214434      1.80916219781724
  H   7.54727117505937     19.84588637226032      3.13553688224952
  H   8.91766324978694     23.23263544437985      2.04230175236273
  H   7.23656273418936     23.83548364080698      2.08511498942057
  H   8.41353587740179     24.37570856796429      3.32551324622293
  H   9.99507911363195     21.47080234564517      3.66712309002896
  H   9.63863938380466     22.44955144404116      5.12449291844344
  H   9.14634167332745     20.72864132916724      5.06689805944300
  H   5.23012339276950     23.08600867371294      2.37855118432402
  H   3.53924973389154     23.53317337778667      2.67268588080181
  C   3.66108890354441     24.34416656998778      5.64559866887575
  H   4.02447254310075     24.90231851014804      6.52110621789613
  H   2.88911539314094     24.92867191318371      5.11965028015488
  H   3.24824456908755     23.38849752221171      5.99426454779903
  C   5.60805343157479     25.67934269485331      4.03338515314940
  H   5.98801254575857     26.22123085994718      4.91399366974168
  H   6.39634751101586     25.62660023680879      3.27354373003767
  H   4.74113874108140     26.22647582757727      3.62754495368900
  H   5.51374736890580     18.15017486606380      5.40756393295694
  H   6.76655677617160     18.82695227570814      4.39900556933442
  C   4.34793239458508     20.39256393802914      6.99324702262272
  H   3.65526707359194     20.86811018312278      6.27734332314923
  H   4.06400017809556     19.32802600835235      7.08023268131506
  C   7.13307727354174     19.57942540469876      7.29462109286722
  H   6.74325418930887     18.59349290343720      7.59680346047311
  H   8.14122075099694     19.45647626397149      6.87377636390966
  H   7.19313742120968     20.23863194812207      8.17076636698934
  C   4.67255164434946     20.49000700046949      2.87768574096753
  H   3.84730187254738     20.32723214456702      2.15993885604569
  N   4.33589150906303     21.03185059237297      8.23614468823505
  H   4.57576753565065     22.02346855004367      8.19582204229944
  H   4.81563329054702     20.54832049162072      8.98944901184529
  N   2.90731339149142     21.54289673127971      4.21574115241352
  H   2.26870324653048     22.31853376963487      4.08764797238208
  H   2.45674175589549     20.64787030976825      4.06185284997198
