52
orca.xyz
  O   7.35449190733675     22.93671749924478      6.06904454350534
  Fe  6.32430494051613     22.09633600780246      4.97169654293854
  N   5.91924102295561     20.34799827748166      6.06650155867434
  C   5.43801925212884     19.14153120226200      5.21526734120881
  C   4.45543419310741     19.61602643301724      4.15164004061502
  P   5.11849981865697     21.10827245035309      3.38714969259153
  C   3.84051221993665     22.27985446115551      2.85595883719062
  C   4.39608720688683     23.65418215777723      3.17710003645955
  N   5.00482606704164     23.72701416976118      4.52713848705383
  C   6.28301632822550     20.70553442693908      2.05053349074123
  C   7.65406414591525     20.59577658280368      2.68995396545110
  N   7.94191474423204     21.70702036350243      3.61948973305956
  C   9.23739897497694     21.48549210562210      4.27475473513149
  C   7.99047384475817     22.99153435534814      2.91545410648358
  H   4.25960537646392     18.80790054341637      3.42990027404171
  H   3.60878710194209     22.18271465129908      1.78317833394213
  H   2.91363299031731     22.05999934591791      3.40774282677952
  H   3.49056316032163     19.88566999686503      4.61241420083915
  H   6.23606607994230     21.51077572549038      1.30065605636499
  H   6.00481004600625     19.76932640575865      1.54037059389147
  H   8.44015252738908     20.55091144769015      1.91419959587295
  H   7.72590093213502     19.66419608428040      3.26988632638969
  H   8.73301950402911     22.96284281790334      2.09822772111303
  H   7.00921343502251     23.22539041251370      2.48511209374078
  H   8.27480273097215     23.77423599778682      3.62987319183809
  H   10.05326109484709     21.56606467633463      3.53644840933389
  H   9.37093280005184     22.23309458852714      5.06649867203720
  H   9.27008398853695     20.48060802126721      4.71151221916325
  H   5.17533749697412     23.92720395424032      2.45113330934581
  H   3.60821415332885     24.42417690268340      3.09448543958903
  C   3.96801912580980     23.58304364035735      5.55650244830195
  H   4.43064939035867     23.65840015935608      6.54685314489028
  H   3.21016416713425     24.37964391341216      5.45626617890979
  H   3.47077211907539     22.61087346347742      5.46003927807088
  C   5.66757793998165     25.03146750823248      4.68508697602331
  H   6.13118589559494     25.08879389874444      5.67569108192894
  H   6.44359677007032     25.14967552830575      3.92058631754158
  H   4.92901368844480     25.84321125878858      4.57174309179757
  H   6.37279784185005     18.81834168543316      4.72617651520345
  C   4.91636458732945     20.68615646810909      7.07661333025610
  H   3.94339763949050     20.87137131723692      6.60641318825856
  H   4.80112555177661     19.85554927219199      7.78983650601185
  H   5.23536390385792     21.58139171579317      7.62442908585581
  C   7.20881162659053     19.98312012830860      6.75027157007484
  H   7.92386306530792     19.79384930687144      5.94065778214418
  H   7.53143358206922     20.90287261134795      7.26244369147576
  N   7.10643467789773     18.84181240544766      7.59235217662072
  H   7.07911494806385     19.06127044735454      8.58459938229877
  H   7.84300998352273     18.16011212830216      7.43362429136690
  N   4.89411225966857     18.06607831025052      5.92026530666874
  H   3.94348449388499     18.20798177622805      6.24923679711149
  H   5.50677389980099     17.76447048349477      6.67892771597189
