22
orca.xyz
O 	12.640617	7.519221	13.124884
Fe 	13.579570	7.739604	11.685579
O 	14.773319	7.906999	9.804921
O 	12.229654	9.149268	10.932453
O 	15.272760	8.340407	12.765481
N 	13.254851	5.726460	11.269044
C 	12.979750	5.093321	10.198667
H 	12.702754	4.035027	10.206018
H 	15.078208	8.983163	13.534599
H 	13.162935	5.161879	12.114605
H 	11.259252	8.951021	11.181158
H 	14.202563	8.036536	8.971982
H 	15.349090	7.089554	9.613618
C 	12.628821	10.285204	10.142571
H 	13.653575	10.594495	10.377788
H 	12.589973	10.059441	9.070830
H 	11.974740	11.145973	10.322473
C 	16.601282	7.884083	12.448623
H 	17.203463	7.749189	13.354321
H 	17.126647	8.600249	11.806591
Br 	13.029353	5.990588	8.513273
Br 	16.560922	6.209952	11.530060
