54
orca.xyz
  O   7.22778347775685     23.26177406726134      6.05009479579733
  Fe  6.32330193671298     22.19728045051247      5.04176226543289
  N   5.95337442122539     20.40872878317542      6.18200995684497
  C   5.70073173745584     19.26406892594193      5.27482762442279
  C   4.66966600926863     19.54538914346981      4.19717195660043
  P   5.09479600821267     21.15839722221492      3.48932939864162
  C   3.69338208863165     22.21377972162572      3.05884751826535
  C   4.25485021049329     23.61270131053412      3.20905391033337
  N   4.95498576138772     23.80730020256319      4.50045984402386
  C   6.18850102493577     20.94887796473259      2.06226217868858
  C   7.56603784504880     20.69564970793604      2.63257768492620
  N   7.94658502781516     21.64703286807373      3.70383690950557
  C   9.19429311824514     21.11184959836431      4.31132861672691
  C   8.17144686128549     22.97889564882195      3.13122288409941
  H   4.67474137358824     18.75140606292889      3.43333552652939
  H   3.33149810945136     22.03041833042374      2.03416838146607
  H   2.85772396512363     22.01258233311012      3.74634549202610
  H   3.64575136353743     19.59905263565166      4.59897283099106
  H   6.14552236400148     21.86879107341026      1.45856708475185
  H   5.86253911958738     20.11845975248045      1.41489176256638
  H   8.32734234380391     20.72966960553762      1.83300469556796
  H   7.61229958073152     19.68520134504070      3.06208541015520
  H   8.99283985550022     22.95298815800065      2.39333078737192
  H   7.25966536639500     23.31575974642761      2.62147408052450
  H   8.41871933455623     23.68475242377137      3.93242666353619
  H   9.89719240674827     20.93202023486248      3.47564054927114
  H   8.93682903326745     20.11746601641025      4.70593012559716
  H   4.98594163973481     23.81265098452111      2.41114293291028
  H   3.45965171080072     24.37270775282653      3.10746520184003
  C   3.99375011713963     23.80058998405412      5.61092373749592
  H   4.53035548592931     23.95754822783559      6.55339458719282
  H   3.25411531780522     24.61014495577112      5.48312166600824
  H   3.46072787809158     22.84451087424136      5.65035184828732
  C   5.64047203973076     25.10839789681640      4.46445789070387
  H   6.16928504637370     25.27132092659487      5.40806685553761
  H   6.36565167007962     25.12738818296429      3.64318931804571
  H   4.90137651783391     25.91211845598703      4.30617436847638
  H   5.38932954170774     18.39117551010408      5.87615918550582
  H   6.66510326519299     19.00328764773463      4.81813911006388
  C   4.75321048874706     20.69897792699927      6.97266985481098
  H   3.90098621760440     20.87509569114123      6.30605584195193
  H   4.50961897600654     19.85006808537594      7.63531613141051
  H   4.91705860515769     21.59137895281690      7.58664628291319
  C   7.08420211633380     20.00581072430029      7.06657526509655
  H   6.85447320969561     18.98576410273174      7.42704455693890
  H   7.96595557463582     19.92046408470302      6.41871058921061
  C   7.37807344297713     20.89646788228332      8.24011986016438
  H   6.56763215359118     20.90554768008913      8.98227565144711
  H   8.27105793634763     20.50195190328121      8.74814286402481
  H   7.59679227107349     21.92152744073922      7.92569138668781
  C   9.86779840080971     21.94866067427373      5.36271677226230
  H   10.24710576093502     22.89933487108046      4.96284292005457
  H   9.20390529867414     22.16989956644223      6.20579333345935
  H   10.73803862851828     21.38602185807819      5.73398521702398
