48
orca.xyz
  O   7.36684815936095     23.15258671245219      6.00886479058435
  Fe  6.28186887273728     22.23356853994351      5.02063824043105
  N   5.98623606963198     20.47152133102061      6.21261404141330
  C   5.93545659504269     19.30792525160257      5.30897724843010
  C   4.87617125341043     19.45535154739515      4.23448851592434
  P   5.10217736755791     21.09903614437070      3.50506261286114
  C   3.57577450210981     22.07857393647479      3.21556024574856
  C   4.02802430603266     23.51219996950283      3.42496371733291
  N   4.85621094499773     23.75977429791624      4.62843562718167
  C   5.99457115409023     20.91170060896726      1.92355167672602
  C   7.42645658642711     20.54578578142747      2.28374843120859
  P   7.99605418200291     21.66761004199790      3.62219976194093
  C   9.49293820587286     20.98596142987078      4.34876775197747
  C   8.48136134433646     23.20159758466415      2.80144084437603
  H   4.96578305853976     18.66557177538192      3.47266881931600
  H   3.23295848643827     21.95612173524425      2.17460859910701
  H   3.85954598064931     19.39465488894765      4.65811093908430
  H   5.94688907089149     21.87911173032668      1.39691603214553
  H   5.50969402677393     20.15737657072462      1.28156710084798
  H   8.10503154043752     20.61732520690400      1.41694415107661
  H   7.49047333609817     19.51114860781007      2.65811063350714
  H   9.34705027986085     23.00065626261308      2.14869866729331
  H   7.65566913870585     23.59166826716550      2.19072901949965
  H   8.75590343129336     23.93904224900761      3.57042953127674
  H   10.28202033245466     20.93796893128599      3.58023525770103
  H   9.80911175851882     21.65033789207551      5.16746898622599
  H   9.31144967201791     19.97582031272422      4.74187557660568
  H   4.65325116081998     23.76908861973219      2.55423724539144
  H   3.16575176200661     24.20152189219241      3.41108655340214
  C   4.03199245395573     23.92498271622435      5.83598953207454
  H   4.69264119164069     24.07428096828430      6.69827503903853
  H   3.37865351323859     24.80793023877290      5.73059472138579
  H   3.39960586292799     23.04597192472655      5.98792288294853
  C   5.62310931061695     25.00039537210055      4.41089843299352
  H   6.22133413894484     25.21543031025916      5.30326462635082
  H   6.29664869313731     24.87727113601817      3.55439951030357
  H   4.93627264942577     25.84028920578021      4.21021415209673
  H   5.73929476106762     18.39938840104555      5.90542710147828
  H   6.93776306142878     19.20675868172465      4.86894274913001
  C   4.70402843936732     20.75933092646372      6.82282726305273
  H   3.98674374582561     21.04979438038087      6.04051161343090
  H   4.83006705336681     21.57743638393887      7.54195676622134
  C   7.04782218754467     20.28967354471956      7.20982141297506
  H   6.85005866384121     19.38734672351585      7.81103367145167
  H   8.01081119486203     20.19036466673871      6.69725344095404
  H   7.08632187479089     21.16635562112727      7.86432444087185
  Br  2.11355965898725     21.48745524998200      4.30887828691564
  Br  3.90232077904164     19.28314837159467      7.75948650279824
