26
orca.xyz
O 	0.434500	-0.151966	-2.539926
N 	2.555214	-0.533218	-0.493439
H 	2.816051	-0.818297	-1.432746
H 	2.865773	-1.282058	0.120441
Fe 	0.211259	-0.108338	-0.821666
H 	3.133417	0.272615	-0.270892
P 	0.445090	2.114326	-0.713682
H 	1.746367	2.670592	-0.654361
H 	-0.094265	2.789520	-1.830102
P 	-0.257430	-2.299267	-0.595525
H 	-0.950457	-2.842190	-1.699746
H 	0.802826	-3.226864	-0.450652
H 	-1.089914	-2.701728	0.471815
P 	-2.194330	0.275527	-0.746863
H 	-2.710285	0.289027	-2.062342
H 	-3.098121	-0.639400	-0.153329
P 	0.428605	-0.034441	1.483622
H 	0.832409	-1.216372	2.145136
H 	1.375319	0.869243	2.015674
H 	-0.708457	0.306997	2.251189
N 	-0.344743	3.008869	0.647222
H 	-0.103193	3.952298	0.950661
H 	-1.100278	2.647565	1.229393
N 	-2.933315	1.806384	-0.125190
H 	-2.444070	2.694806	-0.016444
H 	-3.903458	1.914170	0.170620
