18
orca.xyz
  O   -2.61729193807419      2.11535548199233      1.73407901257955
  Fe  -2.56942242449932      1.80694819373840      0.11902223236634
  P   -3.60419145225415      3.94153581799436      0.05048257053638
  H   -2.71962380540700      4.96267292559106      0.48094846586062
  H   -4.14633258163409      4.47636638927593     -1.14795184759771
  N   -2.63737968553425      1.54033511278988     -1.96238059184241
  H   -2.11365396436349      2.22144417561105     -2.52877799585100
  N   -0.48624265650830      1.63966264404675      0.17957301144681
  H   -0.05486655854427      2.53053152561036      0.45140032480533
  H   -0.22921646555118      0.98677213895379      0.92873073683506
  N   -3.78980440641491      0.14302626936867      0.41425485637843
  H   -3.86991289833502     -0.08124446791913      1.41801469776268
  H   -0.00599601941021      1.31593432854932     -0.66633804854870
  H   -4.67345332744664      4.03019371118803      0.97150628665068
  H   -3.60045244203530     -0.72300760417507     -0.10831976895237
  H   -3.59639789075809      1.55173335647168     -2.33608608301557
  Br  -5.46091678137602      0.78895356962956     -0.14179412458205
  Br  -1.93607208006879     -0.15502424120486     -2.43795690959733
