19
orca.xyz
O 	0.304321	-0.145266	-2.086124
O 	-0.155261	-2.186059	-0.144427
O 	0.375461	2.090184	-0.247587
P 	2.451254	-0.392499	0.104922
P 	-2.247820	0.282758	-0.411680
O 	-0.111978	0.038695	1.924107
H 	-0.560414	-2.663601	0.587687
H 	-0.219970	-2.752565	-0.921903
H 	0.605474	2.614446	0.527393
H 	0.616350	2.611801	-1.021654
H 	2.686630	-1.524023	0.427802
H 	-2.545685	1.434606	-0.255078
H 	0.479069	-0.328736	2.590388
H 	-0.830836	0.438264	2.425924
Fe 	0.128146	-0.055617	-0.394757
H 	2.929345	0.317504	0.945948
H 	-2.887313	-0.353073	0.380007
Br 	-2.999977	-0.272855	-2.403050
Br 	3.603117	-0.037011	-1.735415
