53
orca.xyz
  O   6.75829759771156     22.83291176353516      6.68029147918363
  Fe  6.17281762448554     21.95046023510443      5.34290576761177
  N   5.96458633487531     19.85837526043686      6.04453568459335
  C   6.05884099520195     19.15080555132267      4.75761827213735
  C   5.00940144114978     19.44611694728437      3.68253340751958
  C   3.76605448765329     21.71271741555356      3.79785411317673
  C   3.76583629485466     23.18451663802017      3.41487663645579
  P   5.14023018338115     23.98299859058704      4.34141634927236
  C   5.97570551273935     21.50468054663114      2.32306256785223
  C   7.40277366296472     21.19639821814951      2.71401057847923
  N   7.84179748117940     21.83747164087269      3.96774549609034
  C   9.05328360294449     21.19453905137912      4.48521117134076
  C   8.16814647711181     23.24914074288180      3.70646125084840
  H   5.28508230831901     18.75413807245629      2.86946828106744
  H   2.76323533708785     21.29557997215617      3.59860689067091
  H   4.02797956215085     19.06850696369773      4.01778640359796
  H   5.85667912780255     22.60207990667586      2.29491762346440
  H   5.91952307697247     21.22350557647706      1.25979270184775
  H   8.06929256308077     21.53903844517917      1.90256079202202
  H   7.56766940675973     20.11425879579561      2.79100125671388
  H   9.13495332254506     23.31475841564816      3.17776461494312
  H   7.39949217387135     23.68439517185865      3.05655582948940
  H   8.23078514442090     23.79926806682305      4.65527438185054
  H   9.88249157800670     21.31492083471872      3.76660425681216
  H   9.34046828046961     21.66520243356001      5.43553760790612
  H   8.89473679181849     20.11899857492407      4.63281870691566
  H   3.90738301242552     23.32104187145374      2.33385658719087
  H   2.81006845163121     23.66189334673025      3.68741003533460
  C   4.39918240363994     24.88665847685454      5.72922026770309
  H   5.18683854673932     25.52034324081951      6.16680324060817
  H   3.56441872444635     25.52060349187430      5.39096879423218
  H   4.05966798677220     24.20590872101139      6.52140595204198
  C   5.67241383843510     25.38715542994423      3.24101291179090
  H   6.53039960238965     25.85701882959471      3.74922499635729
  H   4.83382084046049     26.11032306781270      3.30436066564820
  H   6.02227062089683     18.06083793082461      4.94827699483688
  H   7.06699635223240     19.34309930170098      4.37650001252676
  C   4.81810634886856     19.38912742314832      6.82797452578225
  H   3.93616220461913     19.20448336248328      6.19602861571318
  H   5.05188250456702     18.41716419773557      7.29605285961511
  H   4.57438775897793     20.11024997494412      7.62162523314660
  C   7.15994622561177     19.64491982155802      6.86990470467047
  H   7.35071734179998     18.56663518534378      7.01371293156214
  H   8.03869900992829     20.10139860802040      6.40758297132612
  H   7.00377865019983     20.11390750460660      7.84947749159995
  C   4.76834229590482     20.82006466984728      3.01636312636207
  H   4.14005226631285     20.53824125174301      2.15709872182926
  N   4.02536464770563     21.67198169648367      5.23694810583643
  H   3.42511155712167     22.33290370131833      5.73355572945256
  H   3.80004934850932     20.75734397271400      5.62221916152595
  N   6.00962782845719     24.95957703275337      1.92230728249316
  H   6.78337432979004     25.49044300212980      1.52844439344252
  H   5.22700546158993     25.03094821325493      1.27663212790200
