18
orca.xyz
  O   -2.55608203549366      1.03613413144996      1.65644003763728
  Fe  -2.60094994108385      1.27845953774630      0.03605047878840
  P   -3.75125528584897      3.32542682677110      0.56670438592883
  H   -3.12408546105425      4.04046268081944      1.61235417938432
  H   -3.97586492870974      4.32260144889174     -0.41795365220662
  N   -2.62741721165342      1.66587988068262     -2.05110072788732
  H   -2.17845816172808      2.55899745802715     -2.29631191579747
  N   -0.51575913715471      1.38475974213293      0.00434344850211
  H   -0.10272674907695      1.10535092143151      0.90459995929734
  H   -0.01561058848501      0.89634333168653     -0.75197283805312
  N   -3.55568167364239     -0.56031731125171     -0.22962839676552
  H   -3.12663208017883     -1.24352147752185      0.40498966647840
  H   -4.54217985951352     -0.52252476000615      0.05188199047500
  H   -5.05397007454458      3.10734154042161      1.08143746329194
  H   -3.52622683697318     -0.96881504930885     -1.16982308329535
  H   -3.55976383637224      1.70235201467597     -2.48554147522657
  Br  -0.19529616308764      3.22344301620721     -0.20720427785711
  Br  -1.67366358133215      0.34973119945318     -3.02803240228643
