23
orca.xyz
O 	-2.721647	1.654540	1.886679
Fe 	-2.765897	1.820129	0.171990
H 	-3.128515	4.493492	0.216934
N 	-2.678296	2.033049	-2.061035
H 	-2.110516	1.322330	-2.521801
N 	-0.638635	1.786482	0.169942
H 	-0.325587	2.132446	1.076025
H 	-0.273510	0.836169	0.103647
N 	-3.845545	-0.005022	-0.096213
H 	-3.620433	-0.622368	0.682929
H 	-4.855325	0.132913	-0.049075
H 	-0.150434	2.327666	-0.541373
H 	-4.247470	3.777468	1.147155
H 	-3.675735	-0.537847	-0.947744
O 	-3.773392	3.703458	0.248380
C 	-4.035126	1.944913	-2.740479
H 	-4.777180	2.528560	-2.158507
H 	-3.961511	2.357881	-3.767374
H 	-4.355941	0.884041	-2.790932
C 	-2.096506	3.356030	-2.531823
H 	-1.371467	3.728142	-1.779607
H 	-1.580581	3.208067	-3.502597
H 	-2.913293	4.096455	-2.656512
