29
orca.xyz
O 	12.452455	7.716844	13.518818
Fe 	13.351903	7.676995	12.041576
N 	14.677039	7.731587	10.137328
N 	12.139982	8.507796	10.603706
O 	14.945919	8.845193	12.564773
N 	13.844744	5.708877	11.707469
C 	14.119785	8.778573	9.285670
H 	14.611846	9.737564	9.501298
H 	14.295405	8.592324	8.216856
C 	12.671002	8.987477	9.546374
C 	16.030310	8.040311	10.592554
H 	16.578066	7.109482	10.796540
H 	16.621739	8.569798	9.832638
C 	16.014428	8.803678	11.868572
C 	14.575384	6.404421	9.537124
H 	13.744014	6.381464	8.818448
H 	15.470495	6.131574	8.960842
C 	14.275864	5.363515	10.556487
H 	12.100353	9.584051	8.827383
H 	14.409326	4.313938	10.275247
H 	16.940588	9.288313	12.193790
C 	10.668063	8.837467	10.791243
H 	10.510048	9.923084	10.628618
H 	10.064467	8.261330	10.060344
H 	10.356510	8.568349	11.821499
C 	13.533470	4.560370	12.653218
H 	12.626438	4.028368	12.300735
H 	14.390954	3.857003	12.674923
H 	13.356071	4.958372	13.673533
