27
orca.xyz
O 	12.640617	7.519221	13.124884
Fe 	13.579570	7.739604	11.685579
O 	14.773319	7.906999	9.804921
O 	12.229654	9.149268	10.932453
O 	15.272760	8.340407	12.765481
O 	13.254851	5.726460	11.269044
H 	15.078208	8.983163	13.534599
H 	13.162935	5.161879	12.114605
H 	11.259252	8.951021	11.181158
H 	14.202563	8.036536	8.971982
H 	15.349090	7.089554	9.613618
C 	12.628821	10.285204	10.142571
H 	13.653575	10.594495	10.377788
H 	12.589973	10.059441	9.070830
C 	16.601282	7.884083	12.448623
H 	17.203463	7.749189	13.354321
H 	16.578123	6.923473	11.921555
H 	17.126647	8.600249	11.806591
C 	13.169303	5.189404	9.935683
H 	14.164408	5.032323	9.504174
H 	12.649603	4.224552	9.926720
N 	11.721661	11.479024	10.392081
H 	12.037011	12.437950	10.538693
H 	10.703344	11.445199	10.438817
N 	12.411321	6.126248	9.009299
H 	11.656227	6.750890	9.292384
H 	12.579048	6.227576	8.008351
