28
orca.xyz
O 	12.640617	7.519221	13.124884
Fe 	13.579570	7.739604	11.685579
O 	14.773319	7.906999	9.804921
O 	12.229654	9.149268	10.932453
O 	15.272760	8.340407	12.765481
N 	13.254851	5.726460	11.269044
C 	12.979750	5.093321	10.198667
H 	12.702754	4.035027	10.206018
H 	15.078208	8.983163	13.534599
H 	13.162935	5.161879	12.114605
H 	11.259252	8.951021	11.181158
H 	14.202563	8.036536	8.971982
H 	15.349090	7.089554	9.613618
C 	12.628821	10.285204	10.142571
H 	13.653575	10.594495	10.377788
H 	12.589973	10.059441	9.070830
C 	16.601282	7.884083	12.448623
H 	17.203463	7.749189	13.354321
H 	16.578123	6.923473	11.921555
H 	17.126647	8.600249	11.806591
C 	11.709725	11.494732	10.395364
H 	12.325770	12.373394	10.675398
H 	11.136736	11.722345	9.473220
H 	11.005266	11.258860	11.219391
C 	13.019744	5.816771	8.839763
H 	13.859831	6.540772	8.832423
H 	13.164098	5.073068	8.029490
H 	12.064083	6.357085	8.679479
