26
orca.xyz
  O   0.75703110300915      0.48933833363305     -2.26536045093910
  N   2.20150585837186      0.10043116453432      0.22801251959993
  H   2.71067008386197     -0.66193979541027     -0.23649793332878
  H   2.36436630688403     -0.00084276256881      1.23131172668228
  Fe  0.14044096662856      0.13288128733023     -0.69059575576506
  H   2.64387185890595      0.98025181938602     -0.06535594159411
  P   0.38225355432032      2.43460403673450     -0.42884301801109
  H   -0.69825606916134      3.14899129316111     -1.03503483523655
  H   0.39519366224413      3.03044570620957      0.85796254973451
  P   0.57391510332999     -2.18217813575479     -0.91923190722974
  H   -0.40366030677807     -2.93527658209225     -1.64309927537571
  H   0.63899361876317     -2.96366049320692      0.26240427472000
  N   -1.95775119084168     -0.01105370697288     -1.44187622753390
  H   -1.88194089646101     -0.11186139316362     -2.45790753908525
  H   -2.55323431983549     -0.78121470394431     -1.12576849607689
  H   -2.51315650155753      0.83753198183987     -1.29828624014916
  P   -0.76057668864749     -0.09171295610375      1.46289225730853
  H   -1.89253682918857      0.70908760982805      1.77291485761595
  H   -1.24636357761729     -1.35422421253320      1.89818292434978
  H   0.07462114185126      0.23812264323819      2.56130929727423
  N   2.12087785032214     -2.36523673301396     -1.53942000049357
  H   2.28299952276506     -1.86112123562379     -2.41032932128341
  H   2.51180186508434     -3.30842733022348     -1.57419327919073
  N   1.87879195408865      2.84947567398000     -1.04248902268680
  H   2.18939047519064      3.81698466000478     -0.93886211097388
  H   2.03071722184935      2.48906657279753     -1.98648680918606
