19
orca.xyz
O 	0.076405	-0.111514	-2.097181
O 	-0.383177	-2.152307	-0.155484
O 	0.147545	2.123936	-0.258644
P 	2.223338	-0.358747	0.093866
N 	-2.224448	0.280723	-0.420947
O 	-0.339894	0.072447	1.913050
H 	-0.788330	-2.629849	0.576630
H 	-0.447886	-2.718813	-0.932960
H 	0.377558	2.648198	0.516336
H 	0.388434	2.645553	-1.032711
H 	2.458714	-1.490271	0.416746
H 	-2.477220	1.258196	-0.288052
H 	-2.572580	0.023560	-1.342643
H 	0.251153	-0.294984	2.579331
H 	-1.058752	0.472016	2.414867
Fe 	-0.099770	-0.021865	-0.405814
H 	-2.766625	-0.258350	0.250264
Cl 	3.040078	0.854175	1.530618
Cl 	3.296666	-0.027497	-1.620993
