19
orca.xyz
O 	0.756832	-0.094084	-2.061053
O 	-0.238836	-2.120085	-0.309586
O 	0.485919	2.062496	-0.200924
N 	2.297340	-0.417550	0.274162
O 	-1.854486	0.318962	-0.520471
H 	-0.492834	-2.637902	0.462413
H 	-0.035497	-2.738101	-1.020813
H 	0.405419	2.599317	0.595282
H 	0.884550	2.613060	-0.884370
H 	2.893232	-0.504720	-0.547411
H 	2.414293	-1.277586	0.806236
H 	-2.154184	1.161487	-0.881898
H 	-2.412370	-0.354572	-0.927318
Fe 	0.305880	-0.056731	-0.402263
H 	2.693274	0.332393	0.837479
N 	0.150770	-0.080509	1.731976
H 	0.622442	0.803401	2.176201
Br 	0.993175	-1.604771	2.466197
Br 	-1.654678	-0.103515	2.290484
