22
orca.xyz
  O   -2.40863891000461      1.39671573815484      1.05508864312905
  Fe  -2.71477973168929      1.44389437792317     -0.56743053831421
  P   -3.92385373182402      3.50934673106606     -0.08855380155339
  H   -3.04487379589108      4.46599530172601      0.47896159132822
  H   -4.65132779686185      4.30317222936650     -1.01529570886251
  N   -2.84313749739164      1.38453886188190     -2.62617257319707
  H   -2.23357306217880      2.04426956411818     -3.11690033190631
  P   -0.41120212977344      2.04044769516725     -0.58154123048326
  H   -0.09832126529113      3.17074987975674      0.21270516229229
  H   0.37757952834582      1.02589201870200      0.01283947201944
  N   -4.02039519029601     -0.22649897774179     -0.27489823541812
  H   -3.37928640570641     -0.85314542414242      0.22379961859640
  H   -4.73727283640289      0.01652416090761      0.42345472726189
  H   0.30470456192521      2.30993932520366     -1.78018681713175
  H   -4.85898719634408      3.35182515208554      0.96513394285728
  H   -3.69730431547526      1.28488620392512     -3.18999398623261
  N   -4.52011509159655     -0.89598862748459     -1.40902454493637
  H   -4.80197307699454     -1.85646659884245     -1.18355584964707
  H   -5.35786644570383     -0.41327043517698     -1.74044924759644
  N   -2.18406592793017      0.15767075580148     -2.37900436751299
  H   -2.92356919713908     -0.57812018544498     -2.33202976961828
  H   -1.46291204405004     -0.07182424819569     -3.06967669573924
