33
orca.xyz
O 	6.982546	22.567893	6.506738
Fe 	6.301137	21.933198	5.110785
N 	5.675928	20.092142	5.807628
C 	5.712437	19.061272	4.742826
C 	4.771894	19.324809	3.580582
C 	4.041678	21.751631	3.720839
C 	4.313201	23.213513	3.441399
N 	5.576214	23.601499	4.124517
C 	6.056494	21.078878	2.110373
C 	7.438949	20.722903	2.583943
N 	7.742529	21.374111	3.849721
H 	4.980188	18.540202	2.844610
H 	2.968069	21.562569	3.608078
H 	3.744814	19.138296	3.917316
H 	6.028410	22.144136	1.862331
H 	6.001583	20.578742	1.135333
H 	4.382776	23.423532	2.371839
H 	5.451724	18.090919	5.182619
H 	6.752256	18.985943	4.424616
C 	4.772290	20.680059	2.871432
H 	4.065437	20.535925	2.046046
H 	6.309013	19.824307	6.561035
H 	4.750168	20.117396	6.233477
H 	8.682231	21.313283	4.061215
H 	6.267783	23.956992	3.468278
H 	5.411080	24.356646	4.786614
H 	8.117074	20.070049	2.054482
N 	3.181058	24.063658	3.994486
H 	3.288086	24.989269	4.409541
H 	2.196721	23.796833	4.008022
N 	4.209531	21.551689	5.218253
H 	4.958766	21.948821	5.785187
H 	3.590368	20.999620	5.811678
