24
orca.xyz
O 	0.467376	-0.038643	-2.089755
O 	-0.481671	-2.075963	-0.368335
O 	0.249531	2.107456	-0.253993
P 	2.318097	-0.422269	0.249869
O 	-2.095385	0.366525	-0.551607
O 	-0.497522	0.022721	1.720216
H 	-0.736718	-2.604075	0.396395
H 	0.170856	2.653369	0.536269
H 	0.617854	2.658237	-0.954196
H 	2.996614	-0.519732	-0.735076
H 	2.467474	-1.439893	0.868033
H 	-2.387363	1.208552	-0.921136
H 	-2.648195	-0.306243	-0.967191
H 	-0.006141	-0.079705	2.542122
Fe 	0.058350	-0.011146	-0.446205
H 	2.798173	0.459206	0.907538
C 	-0.209637	-3.019653	-1.502111
H 	0.577572	-2.592492	-2.156186
H 	0.132865	-3.994077	-1.097555
H 	-1.138367	-3.169599	-2.090240
C 	-1.926840	0.259885	2.108552
H 	-2.167120	1.336072	1.989956
H 	-2.591670	-0.342551	1.456213
H 	-2.077727	-0.038644	3.166395
