26
orca.xyz
  O   1.33043367136936      0.73123354178802     -2.30909254237358
  N   2.93638094034285      0.11615111301902     -0.14681868001481
  H   3.16930789032403     -0.63775863243204      0.50401891620585
  H   3.34562700223420      0.96718995256614      0.24942671948058
  Fe  0.88234302378485      0.38936281912304     -0.70944138314932
  H   3.45964534558068     -0.06547849989321     -1.00901828104885
  N   0.96273506912155      2.56127376944028     -0.22693422446392
  H   1.17151418712496      2.90994190627391      0.71125154760401
  H   1.64191039191162      2.98805237790683     -0.86301998920889
  H   0.05307890228411      2.95214312643137     -0.49613567432908
  P   0.66997741052906     -2.16265854341028     -1.01054649194017
  H   0.59969461190927     -2.61069879205846     -2.35279758149211
  H   1.76582815918016     -2.96088464710421     -0.57699932723862
  H   -0.39384831573861     -2.91031061292232     -0.44421912042987
  P   -1.39884716227342      0.57226161155380     -1.35179292101942
  H   -2.39081484974297      0.62500472870780     -0.34506651397498
  P   0.10151133475859     -0.01499550457928      1.50956255551079
  H   -0.44588754929455      1.08592375972771      2.22179539780526
  H   -0.94852424291065     -0.95417641328744      1.67695950692705
  H   1.01597089745168     -0.49931979944156      2.48457004360460
  N   -1.91107415093233     -0.78695302339124     -2.17917359122029
  H   -1.39514400367480     -1.01570137434039     -3.02644449295918
  H   -2.91333121038688     -0.94958346335599     -2.28987696909775
  N   -1.55373520791186      2.10006026626544     -2.01889002996367
  H   -2.48352930293566      2.47820445880960     -2.20983105387695
  H   -0.88926353051235      2.31932987323229     -2.76035945188564
