27
orca.xyz
  O   13.47711201557160      7.61160125759332     13.18440094474319
  Fe  14.21843636378043      7.60010210978978     11.72947057290613
  O   15.15006499956793      7.39820892217378      9.94098056304261
  O   12.72148743458363      8.75918824647089     10.89721922002753
  O   15.50185899650445      9.38533044353010     12.09121427966427
  O   13.39349042920507      5.69713590876894     11.20234217708818
  H   15.20220214233513      9.95568303570207     12.81663312411722
  H   12.83500204668736      5.34037016051678     11.91137329984184
  H   12.09168914719112      9.05505258231467     11.57395329025220
  H   15.50261084586871      8.08962221640802      9.36610445338935
  H   14.72562740321928      6.59313812860316      9.38097026559468
  C   12.83044322187202      9.74199415941319      9.85732068190431
  H   13.35258758715436      9.26531516588994      9.01821501674497
  H   11.82164060587252     10.04369791551125      9.53294563669164
  H   13.39746071309414     10.62154731148167     10.20428847918192
  C   16.60969124310014      8.59734076498340     12.51858310013676
  H   17.01973684378513      8.96821016405132     13.47081738705483
  H   17.38515593493029      8.64801719342534     11.74030419809858
  C   12.84808258416078      5.33058536463024      9.92619418138827
  H   12.41212263566386      4.31988045113404     10.02121172526196
  H   12.05615279579201      6.04449580648422      9.64082790200254
  N   13.92375968443995      5.41136332943361      8.97121960576643
  H   14.50047715468774      4.56517428734996      8.97633939073693
  H   13.55593242408942      5.51427237873921      8.02216653154296
  N   16.10789230857674      7.23089211470006     12.63016792812726
  H   15.99714381860944      6.91317079969382     13.59615232425384
  H   16.67531778743159      6.55216843440971     12.11717369317546
