26
orca.xyz
  O   0.67527583954463     -0.93006618330264     -2.21788430253977
  N   2.63505363363136     -0.72113098786692      0.09963113385927
  H   3.31815171595513     -0.36041665591328     -0.57056729089829
  H   2.71435583266337     -1.74469286777759      0.03745582146583
  Fe  0.44344595520493     -0.29107439763747     -0.62855066126858
  H   2.96216027380337     -0.44321481946487      1.02697449585154
  P   1.34061661492673      1.90691755141165     -1.09455480449625
  H   2.41658148967975      1.96176577846641     -2.01773406004397
  H   0.47958328034813      2.87023536574545     -1.68331780758061
  H   1.88196151818456      2.69353976200451     -0.04231480219324
  P   0.13333318903695     -2.55036301475633     -0.16977925472852
  H   -1.12701629242405     -3.00475825890080     -0.66507341138433
  H   0.07738010392575     -3.03202597449085      1.16341975398816
  P   -1.85322251053828      0.41407139185384     -1.24845904820504
  H   -2.09433069603081      0.73044430279160     -2.62294791313059
  H   -2.69316863851687     -0.72443599130647     -1.14200240568857
  P   -0.22642637861507      0.28935429018400      1.52777864771435
  H   0.66730539179686     -0.10611336159978      2.55935693393363
  H   -0.41929539930850      1.65053124091888      1.87265158707881
  H   -1.43658923690452     -0.26881008106714      2.00992407023811
  N   -2.61442548690463      1.48661663296166     -0.19628587443660
  H   -2.19211518227692      2.41253281480784     -0.14511944691345
  H   -3.63019882401979      1.57412401445538     -0.26979356437107
  N   1.43879305697477     -3.38256934380380     -0.80025211036722
  H   1.50109687983254     -4.38572797608329     -0.61706112690852
  H   1.60936372380162     -3.15858537343183     -1.78256227893500
