27
orca.xyz
  O   12.81465893297126      7.73204562482694     12.84183251528414
  Fe  13.57717718784872      7.60744690332362     11.40937620502849
  O   14.43633427988965      7.56064741771911      9.41251954327025
  O   12.38486297912922      9.07176985990149     10.49308070738664
  O   15.29451095198487      8.28863966226196     12.11038704425408
  O   13.10462090451332      5.70259980158596     11.21481892992473
  H   15.29117749058524      8.45532492711959     13.06914641987481
  H   12.61908552854577      5.33657154431089     11.97511349490392
  H   11.51816608172876      9.10335997102001     10.93103499897879
  H   13.92543581212601      7.86654858480993      8.64825259471114
  H   15.16266917342278      7.02957521794154      9.05668500241588
  C   12.87909689343260     10.41972756951748     10.37849965855437
  H   13.83900599866906     10.36750535189514      9.84709694794662
  H   12.16832108940852     11.01804782395344      9.78566789487795
  H   13.02129070217509     10.87178702584863     11.37418932489317
  C   16.78160394276050      8.48929577111289     11.63588385614480
  H   17.14122759369994      7.45844751476531     11.50156631169684
  H   16.63206227866432      9.00602208608501     10.67787353422065
  C   13.05914878191861      4.59175116314498     10.10497075434261
  H   14.12326116446566      4.35247712414228      9.96596715654055
  H   12.63968300640234      5.13415315302908      9.24605351092084
  N   12.31269139792328      3.53518235161232     10.51068252667882
  H   11.32864888734885      3.46099502354926     10.27756998968705
  H   12.73856945676263      2.72482452366760     10.94699253636337
  N   17.49563986084775      9.19160066764623     12.54809588383798
  H   18.07469077132907      8.72652704110765     13.23839032235762
  H   17.55401136969870     10.20315863335589     12.51272389443392
