48
orca.xyz
  O   7.44293525024402     23.07136517373559      5.98549363091464
  Fe  6.37854356924821     22.16566240669566      4.96885820971488
  N   5.96816721890595     20.45906137605314      6.17490652891852
  C   5.74757895391281     19.28259638543074      5.30034221966326
  C   4.69178641352546     19.52243527267038      4.23515079068209
  P   5.07279890456504     21.13367210202248      3.50328263049658
  C   3.70575431747528     22.23622519263017      3.08840083476274
  C   4.32645879773272     23.61554144670651      3.19683651527452
  N   5.06408478241670     23.80934823729480      4.47020564184292
  C   6.13175935445900     20.91457723754326      2.03388809777083
  C   7.53303010245228     20.66681968879152      2.55961751529402
  N   7.91474696054118     21.66168386866180      3.58214845624635
  C   9.14996410456582     21.23350167446006      4.25224980942663
  C   8.12352649786993     22.98205922536455      2.97266967804210
  H   4.71632851538201     18.73829813452492      3.45994366859416
  H   3.31774210527126     22.04324376783057      2.07477978603253
  H   2.87281135634159     22.09343076098354      3.79475974177895
  H   3.66830304128456     19.54850581505495      4.64002698325839
  H   6.07670290711316     21.85091497484836      1.45668564752691
  H   8.26189382439342     20.67939048463176      1.73049862756757
  H   7.58043883653036     19.66733666728337      3.01323798953388
  H   8.90412272008314     22.92883207438658      2.19366268802935
  H   7.19294778969853     23.33252420244740      2.50945617284190
  H   8.43442122328470     23.68883522091124      3.75247969812498
  H   9.98429081609864     21.20997845272151      3.53067319715778
  H   9.37912745289731     21.93645532122246      5.06283993268651
  H   9.01733419966057     20.22348529623318      4.65879270959221
  H   5.04615390680081     23.78333722099005      2.38278581862279
  H   3.55311494320504     24.39892054352404      3.11432498943176
  C   4.18720373679526     23.70521620273655      5.62999590110391
  H   4.77826076614630     23.90854026625315      6.53138582761870
  H   3.76887060902251     22.69459639172016      5.67086116315173
  C   5.75670657705667     25.10801761830180      4.45155939765860
  H   6.36320193349883     25.20614557057150      5.35839328050215
  H   6.40769577752266     25.16477410243294      3.57289135390703
  H   5.01329033595705     25.91986369323001      4.40395841107847
  H   5.47413253584552     18.41297625555232      5.92463518217115
  H   6.71231417804217     19.04402556302918      4.83209872549223
  C   4.77629129635461     20.70956703963871      6.99483445953416
  H   3.89315105559052     20.85120591558875      6.36057151189631
  H   4.58815107888856     19.85051762445653      7.66195882332547
  H   4.93367697417606     21.60268346516611      7.61049840596698
  C   7.10867243925451     20.19764243281831      7.07006945849767
  H   6.91157509560145     19.29849388688526      7.67812184282566
  H   8.01872987365496     20.04012969242718      6.48255754225993
  H   7.25982776432035     21.05895726038171      7.72957332967466
  Br  5.53370341120924     19.52669121084573      0.86545556220927
  Br  2.69046186216760     24.90873765679336      5.63436653322261
