48
orca.xyz
  O   7.37766760011915     23.13519648555768      6.01651905435215
  Fe  6.28651583089508     22.21577053861634      5.02893056720637
  N   5.92978105863614     20.48273137306937      6.22725765563974
  C   5.87428347842410     19.31517795180700      5.32508260731742
  C   4.84710236171644     19.46577382944211      4.21733894886654
  P   5.09036991584883     21.11526862453766      3.50609165594054
  C   3.61831441684012     22.11386884334300      3.19943942230750
  C   4.11998988317113     23.53920844662813      3.33208706666603
  N   4.86749166784507     23.76663262101884      4.59508269198166
  C   6.01220225694042     20.92696254368265      1.93268435479957
  C   7.43153607343138     20.52845454640158      2.28809026757216
  P   7.99846835890088     21.66133208207662      3.61688115640978
  C   9.50407887134271     20.97884146704075      4.32692913573604
  C   8.47450836136144     23.19524530812402      2.79030106702053
  H   4.97827181601613     18.69985301714767      3.43519841077131
  H   3.19748243302018     21.92181682951631      2.19867101392565
  H   2.84440749535270     21.86014132868357      3.93977421183401
  H   3.81105767221622     19.37876463603449      4.57868278249084
  H   5.99437464410858     21.91466994515602      1.44234052258085
  H   8.10294578715954     20.57878314360678      1.41520052691246
  H   7.46255553234366     19.49520540916675      2.67027616813629
  H   9.32020215415604     22.99248039279628      2.11236924779040
  H   7.63693798451379     23.60113818448117      2.20655586699985
  H   8.77844268139702     23.92293579169182      3.55785691468812
  H   10.28472945265773     20.93513020548720      3.54960321857195
  H   9.82692901699629     21.64111974759108      5.14483081183255
  H   9.32739877434573     19.96667141879088      4.71737333188349
  H   4.80778956601227     23.77721942220215      2.50602569896393
  H   3.29160128071476     24.26403121783022      3.26673218451002
  C   3.96393551705337     23.80009933455622      5.75226915876613
  H   4.55697528715606     23.90758766815437      6.66847925573486
  H   3.27805662429592     24.65962588527055      5.66888198691137
  H   3.37875532461497     22.87652828044430      5.79641155655584
  C   5.65743308950378     24.99363720824882      4.51162588610051
  H   6.19563677027312     25.13413213528178      5.45477885846142
  H   6.37683972682877     24.90025277481217      3.68957856689025
  H   5.67453963078946     18.40142627893034      5.91402592461274
  H   6.87950484065255     19.20123096164318      4.89225254045374
  C   4.67440484412542     20.63855101029269      6.96543546097612
  H   3.83757669724027     20.77935077967648      6.27059942953844
  H   4.47263244183528     19.74642146545791      7.58435053555857
  H   4.74547249285647     21.51259426961673      7.62418044160106
  C   7.04521796896103     20.31695984830053      7.17012142942317
  H   6.92159803590899     19.38724954260859      7.75172646160386
  H   7.99094911473912     20.27790841542057      6.61795365892991
  H   7.07753972998147     21.17274380361385      7.85280219164949
  Br  5.13200729807379     19.71243202194606      0.74363244506118
  Br  4.61951626140882     26.57746561096587      4.17710869354672
