48
orca.xyz
  O   7.41724780266491     23.11259902812100      5.95369684109481
  Fe  6.35780818613161     22.18334513747608      4.95371375016220
  N   5.98564051521682     20.43943111749558      6.16541076936693
  C   5.82746961010311     19.28125833905976      5.26990219083499
  C   4.76254559035250     19.48942807919061      4.20686938034680
  P   5.08372502801255     21.11969675705245      3.49031000100015
  C   3.67069636153043     22.17823517104139      3.11907438713062
  C   4.24263267223633     23.57812887596541      3.25406180041133
  N   4.99482937652942     23.77693070515815      4.51933865656641
  C   6.13594169184974     20.92962952996584      2.01479904889000
  C   7.53281986975634     20.67183474280288      2.54823175934733
  N   7.90885042899108     21.65571117047458      3.58369186119991
  C   9.12675857926845     21.21026539396601      4.27296836453291
  C   8.14150639910462     22.97554242591977      2.98067803798861
  H   4.82592609672198     18.70726218286674      3.43363882650085
  H   3.27511560739573     21.99282507092135      2.10679637774665
  H   2.86052453932442     21.97156980122548      3.83509905197538
  H   3.74627028562292     19.45763900477784      4.62771265248211
  H   6.08379938402249     21.87408914406508      1.45084372232414
  H   8.26869169592062     20.68860935441215      1.72550551363218
  H   7.57199692951614     19.66673485952429      2.99114456688118
  H   8.93448107710975     22.91502361229771      2.21482035765487
  H   7.22249531664868     23.33522811462550      2.50054042650800
  H   8.44606864984532     23.67801184905174      3.76689348917404
  H   9.97250859428148     21.17359395989651      3.56538325206492
  H   9.35219007375911     21.91061003715912      5.08684130317169
  H   8.97218203741890     20.20312761651922      4.67894183742566
  H   4.94169856162935     23.77823689620876      2.42800925552569
  H   3.44422108831866     24.33802650441983      3.18307727959030
  C   4.07319067955437     23.80232177567658      5.66457626961495
  H   4.64770784354162     23.94045648829999      6.58834256294575
  H   3.36289597132857     24.64075685757451      5.56140582914065
  H   3.50537194217786     22.86848446625862      5.72205437331506
  C   5.70186236035212     25.06838693105796      4.45677000800093
  H   6.27552977707362     25.21278174171508      5.37862192958397
  H   6.38873717336547     25.08153904154481      3.60353764267837
  H   4.97154476315173     25.88649018827245      4.33812554315018
  H   6.80821129149690     19.11679478852069      4.80398905457634
  C   4.76290765595329     20.71806153621350      6.92760989807478
  H   3.91889229712898     20.88551806441652      6.24901607229754
  H   4.52415987613038     19.86352846796295      7.58214708642303
  H   4.92329384980322     21.60866202524795      7.54499065353665
  C   7.10580065447000     20.23300833274951      7.09948035504330
  H   6.88364936822856     19.38427975623540      7.76547410491092
  H   8.02215009567039     20.01723616793999      6.54102693002350
  H   7.25234787834626     21.14297112602835      7.68928982971659
  Br  5.54038724996774     19.55500325496816      0.82969566266680
  Br  5.44909292696956     17.63308669097412      6.20339110111707
