48
orca.xyz
  O   7.38163903801909     23.16511662175111      6.00782524317384
  Fe  6.29873272926230     22.23933026776160      5.02139822839173
  N   5.98563521126687     20.47826610747672      6.22500849858521
  C   5.94463965836360     19.31509318107634      5.31719171883839
  C   4.88504829180107     19.45445797018889      4.24251051615113
  P   5.09527144744612     21.10603571957580      3.52790177470844
  C   3.60862843049148     22.09097454702367      3.24029647722392
  C   4.11116881004114     23.51868730516005      3.35305507995550
  N   4.87420785992649     23.76668585225064      4.60189142322721
  C   5.99912505449854     20.92233679736550      1.94375054919444
  C   7.42148214225260     20.52054474428042      2.28503137926635
  P   8.00157581377705     21.64486918558302      3.61609373616552
  C   9.50147145872810     20.94849915273774      4.32477122603475
  C   8.48940196927332     23.17627379159901      2.79187301567490
  H   4.99936231189826     18.68963530146933      3.45696338113305
  H   3.17089342576530     21.88634056193625      2.24926485649901
  H   2.84993176858691     21.83877671742130      3.99715855893146
  H   3.86706604877738     19.34727074010961      4.64968994630788
  H   5.97865349319853     21.91131132949160      1.45620276860346
  H   8.08534772346115     20.57747212983194      1.40681801290063
  H   7.45503826329678     19.48409876020736      2.65773875066689
  H   9.33429094958862     22.96935108881977      2.11427895383986
  H   7.65373273706444     23.58742986696032      2.20927371554378
  H   8.79484513571905     23.90167595063068      3.56099156009357
  H   10.27996474325699     20.89468833714699      3.54591870135255
  H   9.83292491329263     21.61042744306822      5.13954015724561
  H   9.31657693767323     19.93951133351260      4.71945427341561
  H   4.78971128168450     23.73849271285724      2.51443432734241
  H   3.27742119101128     24.23959304946410      3.28342347660330
  C   3.96964524535856     23.85348942632504      5.75519637007669
  H   4.56022324315791     23.97410625496281      6.67162723014829
  H   3.29869884265263     24.72371350915503      5.65048171496061
  H   3.35382396363383     22.95087157572893      5.83146817046765
  C   5.61128193381210     25.03460080586879      4.46870844037824
  H   6.15343345627590     25.23968043059863      5.39823010961188
  H   6.33493945724727     24.95765978964467      3.64830318761076
  H   4.91087450598915     25.85965116687506      4.25372851239385
  H   5.76711022566347     18.40156943893938      5.91163412630038
  H   6.94592008087996     19.23066295240019      4.87143674771488
  C   4.70861037652518     20.72441568884178      6.86463532944010
  H   3.96119004846809     20.96679529785777      6.09879150576294
  H   4.81604159982838     21.56554071410124      7.56009848623160
  C   7.06773436007056     20.31546731587491      7.20488893043993
  H   6.90847417021132     19.39890263143019      7.79563824669355
  H   8.02466894537589     20.25543144196604      6.67545260137277
  H   7.08907986295429     21.18354056756549      7.87180585659595
  Br  5.10645717307608     19.71110449041932      0.76082319891250
  Br  4.00457505572331     19.23549622839844      7.86046582179898
