52
orca.xyz
  O   7.40168507226960     23.07000447641738      5.98950306960628
  Fe  6.33875923155514     22.15710371399030      4.97392554496796
  N   6.01592328196503     20.41565807222511      6.09768405758358
  C   5.76430975697189     19.24524670238709      5.22528898145627
  C   4.68287212416527     19.51318621560439      4.19283945095824
  P   5.07291313162631     21.13030183324893      3.48331487037613
  C   3.67472220687692     22.21037422194469      3.09987794891611
  C   4.24212281261273     23.60690896125255      3.27688126564171
  N   4.98289584168724     23.76953675926698      4.55263226423310
  C   6.12011229657804     20.85340959763270      1.96521227477339
  C   7.53603985983466     20.70625095029465      2.51248600852136
  N   7.88201231255100     21.70555278690820      3.53442643332247
  C   9.14253764237752     21.33559896551225      4.18973873206499
  C   8.01861698669957     23.03623498877080      2.93327603209523
  H   4.66102419165064     18.75036119775244      3.39751485106598
  H   3.30375122222564     22.04879380956424      2.07436122985037
  H   2.84190701366093     21.99646590974405      3.78720792341523
  H   3.67513491965137     19.54614236518398      4.63465381189475
  H   6.03159059729078     21.79697515827999      1.40158443928214
  H   8.26523037652057     20.75059499075323      1.68316398273933
  H   7.63475581322953     19.71155261817890      2.97200484315117
  H   8.78502855472346     23.02873482079382      2.13797911796801
  H   7.06291481993429     23.34803137421087      2.49311622957940
  H   8.31377080570870     23.74954800437225      3.71341967834036
  H   9.97340853285625     21.36327013864462      3.46398542438745
  H   9.33872342608507     22.03799832937194      5.00948605056838
  H   9.06409783448825     20.31635172937104      4.58688372452577
  H   4.94948336303105     23.82926044900013      2.46378337499151
  H   3.44507253420884     24.36963512233470      3.21895579623615
  C   4.05541683629967     23.73827864680036      5.69063144197761
  H   4.62274094918311     23.84941866310238      6.62274528444626
  H   3.32960498482961     24.56671730883460      5.61611126808921
  H   3.50356056386205     22.79242176417290      5.70783076033190
  C   5.67519861148928     25.06869121804940      4.54685134094472
  H   6.25565709646152     25.17316401403207      5.47016456196210
  H   6.35506237319014     25.12867815626253      3.69017466034098
  H   4.93709635009124     25.88517060772197      4.47198999014444
  H   5.48817053676365     18.39531684858865      5.87348302390740
  H   6.71519833431929     18.99090182797480      4.73820736050145
  C   4.80567090691616     20.65176722148472      6.98334470443997
  H   3.98849596641573     20.92700184669645      6.30272787130092
  H   5.07040444274143     21.54003981618063      7.57609486742014
  C   7.17040694534006     20.13024670743360      6.96314327164282
  H   6.96540464131298     19.23044464384846      7.56468560600222
  H   8.06166857647207     19.95602193432911      6.35225374899242
  H   7.35534488581410     20.98808937680402      7.61944880325774
  N   5.63714081673777     19.77551877389392      1.18315280294136
  H   5.54093942613412     19.97582126006034      0.19238271446993
  H   6.13401573165973     18.89936403327793      1.31453537459716
  N   4.48015392611393     19.52660804686300      7.75556040264953
  H   3.55784377352297     19.13348699660874      7.61018338627238
  H   4.70458648169873     19.57849865542313      8.74292683439318
