21
orca.xyz
O 	-2.721647	1.654540	1.886679
Fe 	-2.765897	1.820129	0.171990
O 	-3.773392	3.703458	0.248380
H 	-3.128515	4.493492	0.216934
N 	-2.678296	2.033049	-2.061035
H 	-2.288011	2.920551	-2.376856
O 	-0.638635	1.786482	0.169942
H 	0.093719	2.385997	0.227899
H 	-0.273510	0.836169	0.103647
O 	-3.845545	-0.005022	-0.096213
H 	-3.336647	-0.749968	-0.170935
H 	-4.855325	0.132913	-0.049075
H 	-4.635410	4.202733	-0.012823
C 	-1.831949	0.973633	-2.747864
H 	-1.021321	1.465563	-3.323071
H 	-1.389552	0.301878	-1.983988
H 	-2.467910	0.381046	-3.437293
C 	-4.035126	1.944913	-2.740479
H 	-4.783355	1.556193	-2.020043
H 	-4.341704	2.953626	-3.085418
H 	-3.969573	1.260662	-3.611352
