48
orca.xyz
  O   7.37178345537603     23.10877980226570      6.03899382758238
  Fe  6.29481865913753     22.21338441240140      5.02158095963281
  N   5.90975389901742     20.47057239708787      6.21146918315776
  C   5.81019087798992     19.30022961706470      5.31849584145404
  C   4.79034928352464     19.48302306980642      4.20686527206987
  P   5.12914454438143     21.10595074175690      3.46988584992048
  C   3.66357586537840     22.14690180788059      3.19363005671488
  C   4.18893674268372     23.56830194416933      3.31937699113663
  N   4.91751621760645     23.78592479959626      4.58727233914513
  C   6.04344834671956     20.87573066106349      1.91384849754872
  C   7.45756453845946     20.50651900293982      2.32389076640887
  P   8.01912065021483     21.68801507196429      3.62854787263858
  C   9.55646961300224     21.06078312449714      4.31013970351390
  C   8.40941371782811     23.22914953556643      2.77971971986891
  H   4.87584684626172     18.68259623579257      3.45524701880749
  H   2.93144291849326     21.90726641721052      3.98084243320941
  H   3.75295746642786     19.46715363225988      4.57580791885788
  H   6.02024290769420     21.82813202165274      1.35995384863892
  H   5.57398611564395     20.10924598324031      1.27795612929082
  H   7.47838180695457     19.50295665408175      2.78108598995310
  H   9.24453797731833     23.04879739205229      2.08409605062419
  H   7.54193140908319     23.59028070460111      2.21165854393186
  H   8.69824579056858     23.96953316053710      3.54047017106823
  H   10.31293454779280     21.03119981698081      3.50919098521785
  H   9.87748317295404     21.74116024836214      5.11359397697528
  H   9.41668785573327     20.04790047650587      4.71359423939480
  H   4.88492750859347     23.76714637771572      2.49027903369628
  H   3.35958874229241     24.29129137090763      3.22860480261597
  C   3.99073482223736     23.84340909663670      5.72440655945022
  H   4.56429053505236     23.98318265309300      6.64880719621926
  H   3.29143434937084     24.68975294325779      5.60923331498180
  H   3.41029142793030     22.91737430302401      5.79519388488916
  C   5.65882642021309     25.05494007790205      4.49924219814944
  H   6.20055370519612     25.22247431387646      5.43640469115523
  H   6.38173943667476     25.00570024577344      3.67718662655521
  H   4.96089795892749     25.88922941413015      4.31422776512053
  H   5.57618086917039     18.39789228300461      5.91248679497934
  H   6.81102903343535     19.14674583458257      4.88673473450267
  C   4.66983002044500     20.66585194912746      6.96514510834036
  H   3.82749297729710     20.82017303436167      6.27967108324109
  H   4.45240302755903     19.78649144989260      7.59700341331563
  H   4.77216272110946     21.54552907628515      7.61210080246042
  C   7.03497425946959     20.27766319849255      7.13725877416908
  H   6.90064501395933     19.34922324895858      7.71865300922980
  H   7.97084553568608     20.21898554648051      6.56922003401049
  H   7.09755811155519     21.13086560526082      7.82087778024253
  Br  8.66801633522358     20.43325125499574      0.84386068664881
  Br  2.80380406419104     21.84655482462555      1.51467339083225
