48
orca.xyz
  O   7.35681579022676     23.13592217287346      6.02556210034582
  Fe  6.27270494937076     22.22647485649202      5.02859185973197
  N   5.92645550060937     20.48266870932068      6.21270553166881
  C   5.85141317384907     19.31519980238494      5.31603978076934
  C   4.82521311227912     19.48117288055387      4.20822358161667
  P   5.10806830382071     21.11852167463192      3.48295923825331
  C   3.61778306926722     22.13646169709462      3.13865444085269
  C   4.09285847979580     23.55844953350426      3.37771510671606
  N   4.88696597154112     23.77728305513449      4.60760795663436
  C   6.02384836592738     20.90144896700126      1.91864850134659
  C   7.43305199715198     20.51111401870691      2.32626669369363
  P   8.00335194188620     21.67168138397884      3.64770706123069
  C   9.52724603502454     21.01013938160128      4.32793995898159
  C   8.43108675855764     23.21242455670644      2.81549308244319
  H   4.92145426359506     18.68840419731209      3.44989880850315
  H   3.31754497544350     22.02855465965591      2.08330271459743
  H   3.79001315889455     19.45454206045204      4.58455640239573
  H   6.02443690131099     21.86211397083297      1.37821012071356
  H   5.55314752129586     20.14394986825458      1.27103692788869
  H   7.43934037700948     19.50171348439024      2.77022679748657
  H   9.28308105949323     23.02843625866839      2.14184031666263
  H   7.58299541280229     23.58467994538460      2.22587033240779
  H   8.70416266100390     23.94661534862468      3.58809520483057
  H   10.28430032694839     20.97291238602431      3.52784525786860
  H   9.86020884368322     21.67921468242741      5.13598830369895
  H   9.36929307398847     19.99716670592263      4.72409917013758
  H   4.74954228662695     23.81315528035401      2.52981082605474
  H   3.24338559911851     24.26319897115705      3.34522301109255
  C   4.03644827649698     23.87414770994564      5.80329598855416
  H   4.67621043547586     24.04001035468038      6.67825920720033
  H   3.33596518050296     24.72130114852246      5.70674543731950
  H   3.45548543005353     22.95646293130617      5.92701040184490
  C   5.63668491319054     25.03664897920612      4.45406800858053
  H   6.22275483476796     25.21914363504612      5.36140413660910
  H   6.32022764153617     24.96303623947219      3.60018823863257
  H   4.93886284107027     25.87438964493921      4.28495273459190
  H   5.62869240486998     18.40750931801866      5.90632945454150
  H   6.85629069835745     19.17799976839444      4.88852606027564
  C   4.67119195647822     20.66724974679541      6.94449899934949
  H   3.84671895657510     20.84653144798739      6.24228762662041
  H   4.43721410640831     19.77389693509733      7.55029617274860
  H   4.76802728050269     21.52953983031043      7.61529055982126
  C   7.04063051949899     20.30152797733985      7.15285818911807
  H   6.90525604212883     19.37402910960765      7.73543239533602
  H   7.98485204408742     20.24883116020289      6.59873893448097
  H   7.08590222886087     21.15669931351148      7.83518958890698
  Br  8.64694394475184     20.44112650660972      0.84826879227226
  Br  2.09716914423809     21.57011156939841      4.16174439727492
