26
orca.xyz
  O   1.70625790623183      0.17735000403762     -2.29585547833674
  N   3.05259129526566      0.18600713252752     -0.03399995943445
  H   3.59734157745220     -0.05203009729874     -0.86950831215104
  H   3.27920112384613     -0.51062128740296      0.68030516663730
  Fe  1.04060104099496      0.30833346897378     -0.71453470957681
  H   3.43306922730972      1.07345338722137      0.30635895406216
  N   1.01719575662808      2.55624322692010     -0.56271463986397
  H   1.56286685565401      3.00600854564599      0.17622419974410
  H   1.36102307584614      2.93781237775050     -1.44822897139673
  H   0.04970601339346      2.88270776808553     -0.44993014303388
  P   0.84185622350320     -2.25564866388396     -0.83844543063220
  H   0.20645009724369     -2.65768317496985     -2.04043548386629
  H   2.11954100224083     -2.83489327244402     -1.05723689279895
  H   0.29963727982878     -3.22863884156706      0.04869562467339
  P   -1.13834724063872      0.64689994199162     -1.53682630114273
  H   -1.13289590036744      1.30523573624234     -2.78847301256438
  H   -1.89663213193864     -0.52047376926385     -1.86682065859549
  P   0.21503345179397      0.18981878407035      1.44824321260658
  H   0.14253564437640      1.43770518403663      2.12019043444299
  H   1.03737773040073     -0.51869833949444      2.38017664383293
  N   -1.38759705068906     -0.33556118505250      1.57057206384477
  H   -1.79017198999428     -0.34295462755234      2.51102642051542
  H   -1.57049001395738     -1.22819605850891      1.11293858426416
  N   -1.99576202896622      1.72359900094773     -0.57517170374982
  H   -2.19730637458408      1.32133822936947      0.34611742973003
  H   -2.82680477564662      2.15014046730111     -0.98985199124869
