48
orca.xyz
  O   7.40336046797825     23.06333414122534      5.99895481028050
  Fe  6.35241575410577     22.16396222773993      4.96421794644936
  N   5.99048476700931     20.42737008927345      6.13831996291700
  C   5.70020964589851     19.25777585993473      5.27657993825527
  C   4.63149574572306     19.53953928359948      4.23428696877074
  P   5.08718934816856     21.11799251698879      3.46137305171836
  C   3.72931415794390     22.23297645224475      3.02856949165370
  C   4.30611255529229     23.62317616414968      3.21093219598465
  N   5.01149741940542     23.78401207984693      4.50891427902074
  C   6.18120788192122     20.82677822023627      2.04305727749781
  C   7.56825012906014     20.63564705687659      2.62185440881878
  N   7.93210784473257     21.68804275616292      3.58258568765220
  C   9.19626080845565     21.36551108295307      4.25968170598841
  C   8.02906601786307     23.01180241604228      2.95773144411798
  H   4.57414126167124     18.72410703352416      3.49534610753997
  H   3.37617426519583     22.08184234171269      1.99546962998759
  H   2.87762788327788     22.03464301845753      3.69753111866244
  H   3.62908639719835     19.64407618986076      4.67838915321846
  H   6.14110129143914     21.69935142112981      1.37281758802599
  H   5.87911333630249     19.94564422935436      1.45623969467410
  H   7.62855911076551     19.68269842523433      3.16470283829730
  H   8.76619322562304     22.99461459195214      2.13720814315542
  H   7.05520059737861     23.30135167535095      2.54291969868167
  H   8.34472869072330     23.73266853476819      3.72169289095490
  H   10.03304884959039     21.44408178549090      3.54765700845298
  H   9.33794795107113     22.06504391536148      5.09233220758851
  H   9.15910876140675     20.33499248602714      4.63318838138554
  H   5.03498118709906     23.84280045833182      2.41631239063756
  H   3.52047047906885     24.39385408404602      3.13515967691309
  C   4.06464340312827     23.71703560468106      5.63274452639105
  H   4.61386506587375     23.83731744020929      6.57408314684201
  H   3.32366205795141     24.52911477257119      5.54903090985227
  H   3.54583348645641     22.75388821313204      5.62411694100355
  C   5.75165729340791     25.04866215461275      4.53646739478191
  H   6.29993886949892     25.11430233711931      5.48218269784881
  H   6.45451319743046     25.07474887505836      3.69752517112525
  H   5.40524964448690     18.40324539657279      5.91179212881704
  H   6.64306575723625     18.97573053172625      4.78794947843828
  C   4.84239878201630     20.71555961559925      7.00777079612805
  H   3.94241048781837     20.89498277036756      6.40957734397423
  H   4.65165543758759     19.86108524873837      7.68002510242616
  H   5.05818484359598     21.60062056434116      7.61696842740894
  C   7.16255714501079     20.13409266653986      6.98032710511632
  H   6.96576703427277     19.24525403356250      7.60346687649263
  H   8.03603251852245     19.94140780291488      6.34911613737682
  H   7.37395814273940     20.99451566427928      7.62453437383372
  Br  8.84153417560270     20.44653485573981      1.18013331964054
  Br  4.64233867884581     26.60904429031023      4.37859013715953
