36
orca.xyz
O 	-2.209836	2.487775	1.772589
Fe 	-2.434311	2.252946	0.069243
N 	-3.531065	4.023649	-0.232751
O 	-2.391956	1.422340	-1.997236
O 	-0.355394	2.520673	-0.132829
O 	-3.638930	0.544921	0.473561
C 	-4.793404	3.864747	0.507229
H 	-5.390169	4.780667	0.424378
H 	-5.369873	3.039942	0.080119
H 	-4.572728	3.673934	1.557637
C 	-2.763847	5.150092	0.327624
H 	-1.822037	5.256540	-0.214381
H 	-3.340229	6.075946	0.218112
H 	-2.563215	4.961258	1.381222
C 	-3.824166	4.290307	-1.647083
H 	-4.404887	3.469743	-2.072742
H 	-4.412763	5.211015	-1.735629
H 	-1.842368	0.576391	-2.604781
H 	-2.826455	1.602638	-3.092508
H 	-4.436847	0.729597	1.082620
C 	-3.352580	-0.759118	-0.065963
H 	-2.375437	-1.124241	0.270170
H 	-4.104218	-1.493517	0.245171
H 	-3.340043	-0.743631	-1.161733
C 	0.308705	2.848674	-1.367733
H 	1.392634	2.930890	-1.228277
H 	0.131339	2.083191	-2.131725
H 	-0.045798	3.804608	-1.769761
C 	0.341619	2.324240	1.180787
H 	1.241308	2.971489	1.220876
H 	-0.346426	2.594060	2.007991
H 	0.644938	1.262044	1.284010
C 	-2.510281	4.487311	-2.425861
H 	-1.868382	5.214078	-1.887573
H 	-1.981158	3.515950	-2.509300
H 	-2.735801	4.873674	-3.441135
