22
orca.xyz
  O   0.58061616568242     -0.74858053017018     -2.44240964019447
  N   2.74628293684828     -0.88428121757788     -0.52081643266913
  H   3.12907735837608     -0.90021302749420     -1.47033008304196
  H   2.83160004406236     -1.84610122542056     -0.17836941976687
  Fe  0.60821819465165     -0.34712938239665     -0.76412499185991
  H   3.38689412561346     -0.31823767423650      0.04142080152790
  P   0.59216395924230      1.94440643194577     -1.16860382095151
  H   1.87359790681910      2.50326735076609     -1.41843393067841
  H   -0.12406961519762      2.39196938160970     -2.30618230954174
  H   0.11218684948918      2.82886485795027     -0.16857330152486
  P   -0.48654682476681     -2.30782886627723     -0.40183281063992
  H   -1.23586710913731     -2.76692498254557     -1.51687863095207
  H   -1.42065075391617     -2.38719740825049      0.66478733502329
  P   -2.12036428116035      0.18122783337748     -0.83844788549597
  H   -2.40796016298403      0.36391468775177     -2.21653169568477
  H   -3.26321565231191     -0.57540437935424     -0.45599542320176
  H   -2.51202461938684      1.44591147759746     -0.32346146414898
  P   0.58244564783667     -0.02577225843302      1.51730297785736
  H   1.29100510286347     -1.02161555885008      2.24771631942350
  H   1.20400805491065      1.13685812649836      2.05523700491400
  Br  -1.34489499528655      0.00689289833031      2.50721215022753
  Br  0.86997893674151     -3.94516500461501      0.02453317716579
