26
orca.xyz
  O   0.12477260555256     -0.57964364634562     -2.33102774902884
  N   2.10872941537674     -0.37294368504231     -0.29043259328798
  H   2.61896293429897     -0.06131912179903     -1.12023390677435
  H   2.45748029808939     -1.31375840689182     -0.08993920626054
  Fe  -0.04414214414245     -0.25785737862286     -0.69293197645203
  H   2.37976451492228      0.21745447606610      0.50663216963932
  P   0.18440972896829      2.11392288511109     -1.11703417072946
  H   1.50173087553869      2.39818176358811     -1.54725741577300
  H   -0.54229088304597      2.56552832177084     -2.25892872874867
  P   -0.34568327914286     -2.65255863951413     -0.47875469059689
  H   -1.35253484507566     -3.16985476603860     -1.33262648082278
  H   0.78010178217976     -3.37690632558561     -0.94602213153816
  H   -0.62866650958867     -3.34569878781518      0.72900130137666
  N   -2.27160538395832     -0.08507661014007     -0.85458533283698
  H   -2.46613070649371     -0.29105557659512     -1.83930034186278
  H   -2.82957239466132     -0.74797930473564     -0.30947468680430
  H   -2.68882378235483      0.83137624815678     -0.67259865154448
  P   -0.14754116382376      0.14177410570769      1.63652666327897
  H   -1.41535329617891      0.53655557259739      2.17277904602488
  H   0.09100090951028     -0.99303710453373      2.45313897950583
  N   1.09412107209195      1.17631025255239      2.09377085452296
  H   0.99697334575811      2.09924871354639      1.64699245579050
  H   1.28440698842371      1.25799995100529      3.09448545144096
  N   0.02157585733496      3.20773167841306      0.17027667186753
  H   0.35321417262544      4.15904133906908     -0.01113310955530
  H   -0.91757773919479      3.25519659401707      0.56740530811473
