23
orca.xyz
O 	-2.721647	1.654540	1.886679
Fe 	-2.765897	1.820129	0.171990
H 	-3.128515	4.493492	0.216934
N 	-2.678296	2.033049	-2.061035
H 	-2.288011	2.920551	-2.376856
N 	-0.638635	1.786482	0.169942
H 	-0.325587	2.132446	1.076025
H 	-0.273510	0.836169	0.103647
N 	-3.845545	-0.005022	-0.096213
H 	-3.620433	-0.622368	0.682929
H 	-4.855325	0.132913	-0.049075
H 	-4.247470	3.777468	1.147155
H 	-3.675735	-0.537847	-0.947744
H 	-3.588546	1.973922	-2.516850
O 	-3.773392	3.703458	0.248380
C 	-1.831949	0.973633	-2.747864
H 	-1.021321	1.465563	-3.323071
H 	-1.389552	0.301878	-1.983988
H 	-2.467910	0.381046	-3.437293
C 	0.090006	2.594199	-0.891696
H 	0.796472	3.294574	-0.401433
H 	0.651157	1.907389	-1.557937
H 	-0.646365	3.169532	-1.489749
