52
orca.xyz
  O   6.55837223459638     23.25881619972263      6.39483318483580
  Fe  5.85329569224620     22.27200540203708      5.26666768915116
  N   5.53811727219292     20.41852329755467      6.33975539220510
  C   5.79698795092800     19.30817723136518      5.17889537961048
  C   5.17936418269863     19.77709700397291      3.86983830309415
  N   5.30215114983984     21.21708942409866      3.56247116466330
  C   3.89456841589193     21.74448822584142      3.21980739807752
  C   3.88331432308210     23.26205251163719      3.28127277497159
  N   4.37145602560294     23.79519767522917      4.58308298080021
  C   6.18773461088106     21.45970813124580      2.40118221435469
  C   7.61646161919004     20.98121960804550      2.50974141551880
  N   8.40621786918669     21.60190335634551      3.57979362851906
  C   9.43102001172078     20.70621938142823      4.10438837890077
  C   8.94388265555383     22.93545835452579      3.29220044483120
  H   5.64994797552830     19.17397779348876      3.08139558861090
  H   3.27092701500464     21.36400537116189      4.03554238449105
  H   4.11848992790376     19.50025772316264      3.84548749043880
  H   6.17397523611930     22.53422765395921      2.18992100598100
  H   5.73856762273478     20.94885496970162      1.53259247000806
  H   8.08731245318135     21.13679955367258      1.52420900871138
  H   7.64101663063678     19.89809404324601      2.68146711313050
  F   10.19778559698279     22.91371557976797      2.87975251167548
  F   8.20430407673394     23.50265405759210      2.33868082395105
  F   8.87220681685405     23.68282228450871      4.39279342176238
  F   10.29885648385625     20.33426236649951      3.17624524769440
  F   10.06322243661181     21.29181148108111      5.10531561364408
  F   8.84294244191449     19.58445953878516      4.55488241871718
  H   4.51190408856124     23.68370229560303      2.48644189257876
  H   2.85989292725012     23.61532535616095      3.08953944047829
  C   3.24404372045415     23.99280712663236      5.55246726436572
  F   3.72778876293870     24.16483555422743      6.75890439548404
  F   2.50521333378680     25.02088522615162      5.19604754321360
  F   2.50091898997441     22.89024510965631      5.52167893226038
  C   5.13432461646629     25.06551323248706      4.35307549672147
  F   5.38215383877660     25.67519319925905      5.48045091748199
  F   6.27632703671526     24.69366862547633      3.76949058700879
  F   4.47840154150169     25.86127675672122      3.53423952554920
  H   6.88746827370912     19.36585239669299      5.12124851855433
  C   4.20489540684638     20.29756780384943      6.96054879450010
  F   3.31654084635187     20.07446225325859      5.98571958088366
  F   4.14751853175621     19.30518393727410      7.82057140977538
  F   3.89366450976292     21.43367305067639      7.56091300365846
  C   6.62286308251798     20.32371342833608      7.35557595529254
  F   6.82689869507447     19.07253249524866      7.72797454733243
  F   7.73477773263554     20.77550873586135      6.77525792242751
  F   6.34231298298373     21.06200706839980      8.40462881570166
  N   3.42443838892515     21.23349094753840      2.00284005626379
  H   2.53186088831487     20.75360409402026      2.03106868650513
  H   3.50041513260721     21.83192625035372      1.18631654653983
  N   5.39586774641375     18.03064307402650      5.47292200855714
  H   4.41058418466313     17.79495283703515      5.43408015184392
  H   5.94192183572991     17.47701331870241      6.12241279601832
