53
orca.xyz
  O   8.26504920895835     22.60033676115071      9.37261942306374
  Fe  7.98668772788373     21.26388192528602      8.41082503437889
  P   7.59891314809987     19.86488980396105     10.27648557176370
  C   7.16022320948466     18.11870501959833      9.95337228564181
  C   6.42182571755918     17.72249179066870      8.66740475823613
  C   5.56684226766254     19.86665595375793      7.72315885911972
  C   5.30106075607599     20.95389248064581      6.65928569181596
  P   6.28389892422021     22.38645818136754      7.29365971016430
  C   7.68204515062593     18.65440037732609      6.54966762559702
  C   9.10629692633723     19.02595235735039      6.95236791023341
  N   9.30532855214982     20.53908856284140      7.06733505183962
  C   10.64234295849082     20.87079222120383      7.57086101901889
  C   9.06851886049176     21.20406229488173      5.78143506945205
  H   6.81475386824528     16.73940546070017      8.36705060501586
  H   4.59708014104110     19.48861475314509      8.08481519728902
  H   5.96048140737084     20.37879675992140      8.63588841518555
  H   5.36731056024576     17.54961693586691      8.93351850111113
  H   7.42720087859199     19.22312710617533      5.64824087674017
  H   7.80346358992767     17.61280523917187      6.21401093142506
  H   9.72535553774350     18.75807274113566      6.07453452334931
  H   9.76513773570927     20.81373406197799      5.01752248817746
  H   8.03443559001839     21.02865142353396      5.44820107482972
  H   9.24744814779040     22.28255585318271      5.89142053726543
  H   11.42163884339856     20.44956501485668      6.91069927203679
  H   10.75898738745943     21.96290998001056      7.60270909642236
  H   10.77518884009785     20.47339987191187      8.58532963429171
  H   4.24110504113667     21.27266833146590      6.75974305770343
  C   5.23622011968973     23.16331016948399      8.53615618365347
  H   5.81708309133330     23.95630052022823      9.03025998343050
  H   4.33911141396558     23.58950036686024      8.05888286241906
  H   4.93631998990130     22.42601315159266      9.29245256993820
  C   6.57155687904261     23.61955584858957      6.01618524348542
  H   7.22536712268353     24.40840051775196      6.42080648816323
  H   7.04771106016662     23.16436748373430      5.13797319376896
  H   5.60630935674321     24.06886437718902      5.72837111783625
  H   6.57370070695575     17.80940299887857     10.83623411062603
  H   8.10249683675983     17.55456973849856     10.04409097237833
  C   6.26225060915817     20.58655620193939     11.26097192094585
  H   5.29830375433333     20.47572836256503     10.74480270141687
  H   6.20721558786198     20.06757334488880     12.23165501211500
  H   6.47984042207262     21.65283505550111     11.42018666075963
  C   9.02037909248772     19.83457477897074     11.39271965355559
  H   8.78041252214379     19.23361681407188     12.28509160446084
  H   9.90191461583668     19.40585072295444     10.89434180255926
  H   9.24634794366542     20.86851467774077     11.69197712977907
  C   6.40861760360961     18.61909274134621      7.42110373840747
  H   5.74414201717910     18.05061039575044      6.74553143353433
  N   9.59725641377241     18.29128539780244      8.04130914197370
  H   10.60627613753699     18.26297551513586      8.13644621903687
  H   9.14183239967737     18.47767202395572      8.92248862263922
  N   5.67856704548891     20.60569331553662      5.31870526028929
  H   5.27197942197055     19.70636788637002      5.05975135800737
  H   5.29781390272775     21.28000224419155      4.65532729010966
