37
orca.xyz
O 	-2.209836	2.487775	1.772589
Fe 	-2.434311	2.252946	0.069243
N 	-3.531065	4.023649	-0.232751
N 	-2.403976	1.478580	-2.019171
O 	-0.355394	2.520673	-0.132829
O 	-3.638930	0.544921	0.473561
C 	-4.793404	3.864747	0.507229
H 	-5.390169	4.780667	0.424378
H 	-5.369873	3.039942	0.080119
H 	-4.572728	3.673934	1.557637
C 	-2.763847	5.150092	0.327624
H 	-1.822037	5.256540	-0.214381
H 	-3.340229	6.075946	0.218112
H 	-2.563215	4.961258	1.381222
C 	-3.824166	4.290307	-1.647083
H 	-4.404887	3.469743	-2.072742
H 	-4.412763	5.211015	-1.735629
H 	-2.892354	4.430023	-2.199395
H 	-1.679803	0.777487	-2.161108
H 	-3.279652	1.023840	-2.267042
H 	-2.250844	2.176163	-2.742557
C 	0.308705	2.848674	-1.367733
H 	1.392634	2.930890	-1.228277
H 	0.131339	2.083191	-2.131725
H 	-0.045798	3.804608	-1.769761
C 	-3.352580	-0.759118	-0.065963
H 	-2.375437	-1.124241	0.270170
H 	-4.104218	-1.493517	0.245171
H 	-3.340043	-0.743631	-1.161733
C 	-4.811588	0.816330	1.368664
H 	-4.963345	1.911533	1.455144
H 	-5.720806	0.348854	0.938240
H 	-4.616989	0.389123	2.373922
C 	0.341619	2.324240	1.180787
H 	1.241308	2.971489	1.220876
H 	-0.346426	2.594060	2.007991
H 	0.644938	1.262044	1.284010
