20
orca.xyz
O 	12.640617	7.519221	13.124884
Fe 	13.579570	7.739604	11.685579
O 	14.773319	7.906999	9.804921
N 	12.229654	9.149268	10.932453
N 	15.272760	8.340407	12.765481
N 	13.254851	5.726460	11.269044
C 	12.388047	10.280368	10.367696
C 	16.471416	7.907989	12.764792
C 	12.979750	5.093321	10.198667
H 	11.548340	10.949699	10.158231
H 	15.078208	8.983163	13.534599
H 	13.162935	5.161879	12.114605
H 	11.259252	8.951021	11.181158
H 	14.202563	8.036536	8.971982
H 	15.349090	7.089554	9.613618
H 	13.008097	5.606092	9.235496
H 	13.388113	10.612200	10.081216
H 	16.791274	7.189296	12.007553
Cl 	17.655380	8.421312	13.961591
Cl 	12.534113	3.390715	10.210493
