33
orca.xyz
  O   -2.45976399221293      3.00902755644235      1.54508321384681
  Fe  -2.80805473351532      2.60545563074473      0.00006463033705
  N   -3.69453730182003      4.46412597123959     -0.26267846655303
  N   -3.19573311673402      1.81659218394854     -1.91376607711387
  O   -0.82515045594389      2.91930526399959     -0.48900377394630
  O   -2.62911313653142     -0.15196371562135      0.05522262208391
  C   -5.00499771714423      4.26783423709239      0.38048189167953
  H   -5.60797878162523      5.18682049626409      0.28407600252856
  H   -5.54267145525087      3.44718654827552     -0.11939769125782
  H   -4.85842359657339      4.04874710434108      1.44693878276074
  C   -2.87981463687613      5.47818921226886      0.42919128427163
  H   -1.90359146627643      5.53912166058518     -0.07135542087851
  H   -2.75601835585014      5.17096516058173      1.47550388799586
  C   -3.82849399616990      4.78556707200269     -1.69174616548086
  H   -4.51858403577159      4.08554204903615     -2.17644403753671
  H   -4.24330628609532      5.80308537965684     -1.78992470688394
  H   -2.83932564120678      4.76927086813115     -2.17050166657509
  H   -2.80490618022835      0.86709018816155     -1.92668474821617
  H   -4.18476980464368      1.70457651080103     -2.15545405539372
  H   -2.78199553688572      2.32089711186839     -2.70186186718656
  H   -0.36798209595805      3.16826311935493      0.33126630905541
  C   0.06509102998943      2.16167269581239     -1.32482378038490
  H   1.03575693881067      2.67989961387440     -1.38044345054246
  H   0.20026680424148      1.14152089664408     -0.92907473683595
  H   -0.36890656246266      2.12583538747356     -2.33275509121573
  C   -2.63947715881520     -1.45559198655055      0.65107961394431
  H   -2.28227535943025     -1.41064396103836      1.69527964848056
  H   -3.65009995695211     -1.89934431789173      0.60169987055411
  H   -1.94152607639813     -2.05180295740965      0.04549986488437
  N   -3.45860755727147      0.74042238175915      0.70610023651221
  H   -3.28373910710812      0.72149083962649      1.72477719658039
  H   -4.44855270442885      0.48211018826530      0.56133286969825
  Br  -3.66205000547529      7.22165779838213      0.41737204788772
