34
orca.xyz
O 	-2.209836	2.487775	1.772589
Fe 	-2.434311	2.252946	0.069243
N 	-3.531065	4.023649	-0.232751
N 	-2.403976	1.478580	-2.019171
O 	-0.355394	2.520673	-0.132829
N 	-3.638930	0.544921	0.473561
C 	-4.793404	3.864747	0.507229
H 	-5.390169	4.780667	0.424378
H 	-5.369873	3.039942	0.080119
H 	-4.572728	3.673934	1.557637
C 	-2.763847	5.150092	0.327624
H 	-1.822037	5.256540	-0.214381
H 	-3.340229	6.075946	0.218112
H 	-2.563215	4.961258	1.381222
C 	-3.824166	4.290307	-1.647083
H 	-4.404887	3.469743	-2.072742
H 	-4.412763	5.211015	-1.735629
H 	-2.892354	4.430023	-2.199395
H 	-1.679803	0.777487	-2.161108
H 	-3.279652	1.023840	-2.267042
H 	-2.250844	2.176163	-2.742557
H 	0.118797	2.387036	0.760848
C 	-3.431995	-0.699006	0.294547
H 	-4.070220	-1.469985	0.736245
C 	0.308705	2.848674	-1.367733
H 	1.392634	2.930890	-1.228277
H 	0.131339	2.083191	-2.131725
H 	-0.045798	3.804608	-1.769761
N 	-2.256788	-1.156675	-0.553879
H 	-1.548827	-1.831570	-0.264417
H 	-2.054070	-0.836432	-1.500793
N 	-4.811588	0.816330	1.368664
H 	-4.927701	1.644720	1.952417
H 	-5.616294	0.201061	1.487783
