31
orca.xyz
  O   -2.79021414145532      2.74485514276818      1.57406493744381
  Fe  -2.64563527332976      2.49472400378644     -0.02899253126457
  N   -3.85840067166908      4.15804194589854     -0.36287681447791
  N   -2.34803113980731      1.92001754809608     -2.03014595247088
  O   -0.80402837016335      1.33691595137315      0.46039053736896
  O   -3.74024007795800      0.72986262391578      0.21339866498936
  C   -5.17914820552865      3.60827360501908     -0.00452993321709
  H   -5.36821927146397      2.70623944522360     -0.60495239080034
  H   -5.16679531485544      3.36593021014517      1.06645778012070
  C   -3.48413019316688      5.27857970130385      0.51828983348426
  H   -2.49003109651005      5.64972062040415      0.24165696850696
  H   -4.21852593646157      6.08872301102596      0.38174308056549
  H   -3.48580693268791      4.94513724096101      1.56246569290956
  C   -3.78147880951975      4.57555384177095     -1.77137469828536
  H   -4.20239791320845      3.80257559336484     -2.42598914439937
  H   -4.37680969058107      5.49193885794475     -1.91031608725629
  H   -2.73734498819411      4.79767378636461     -2.03033098398865
  H   -1.77950407151324      1.06936580158291     -2.07814997417963
  H   -3.19956023227373      1.70841068005823     -2.55824985413324
  H   -1.84611424176514      2.62122180313305     -2.58213563598630
  H   -0.84272944625782      1.38434178861144      1.45334995242105
  H   -3.95585209963892      0.66511359939698      1.15772435380265
  C   0.28915523154292      2.06905090949011      0.03436542751354
  H   1.09373416997409      2.13480812831853      0.78256097174017
  H   0.65513728303760      1.69770923215377     -0.93296668980904
  C   -3.57038247057431     -0.58824613109090     -0.33027215344218
  H   -2.58036150118196     -0.99571796568818     -0.06646373117164
  H   -4.36448428570654     -1.24497364239447      0.05960808330451
  H   -3.68180443079414     -0.52260216352297     -1.42084802663709
  Br  -0.31108181892054      3.92259927814442     -0.29879130079375
  Br  -6.62636650660885      4.81533194280360     -0.32168124780511
