28
orca.xyz
O 	11.847914	7.058075	12.973660
Fe 	13.053770	7.373406	11.800642
N 	14.646638	7.728902	10.161584
N 	12.021231	8.310760	10.312335
O 	14.485207	8.587998	12.735472
O 	13.743023	5.500717	11.376512
C 	14.142229	8.818189	9.325046
H 	14.475668	8.735860	8.281309
C 	12.659817	8.920494	9.390429
C 	15.874122	8.078628	10.865149
H 	16.478129	7.179570	11.063652
H 	16.533515	8.745862	10.291195
C 	15.590608	8.662368	12.209967
C 	14.753875	6.464035	9.433966
H 	14.057544	6.462999	8.583451
H 	15.751039	6.311890	8.997982
C 	14.373597	5.304925	10.284077
H 	14.621746	4.299959	9.927565
H 	16.417862	9.150644	12.752025
H 	11.011602	8.451412	10.317670
C 	14.691904	10.167450	9.823996
H 	15.635001	9.997310	10.382205
H 	14.888988	10.829659	8.956176
H 	13.947280	10.646341	10.492665
C 	11.948402	9.807327	8.351672
H 	12.477849	10.778578	8.272086
H 	11.955380	9.299325	7.365588
H 	10.900026	9.982261	8.669829
