40
orca.xyz
O 	0.782012	0.205613	3.127330
N 	0.313597	-1.893233	0.729616
C 	1.250181	-1.886912	-0.362179
H 	0.787382	-1.435180	-1.247207
H 	1.533794	-2.917864	-0.597360
C 	-0.999549	-2.404791	0.425697
H 	-1.380163	-2.809644	1.367743
H 	-0.929109	-3.212555	-0.308566
C 	2.443748	-1.105395	0.120025
H 	2.899314	-1.620310	0.970342
H 	3.191626	-1.023583	-0.676827
C 	-1.870215	-1.283753	-0.073108
H 	-2.913188	-1.609958	-0.153847
H 	-1.536530	-0.905281	-1.046119
C 	1.834916	1.242171	-0.464136
H 	2.803312	1.585110	-0.848208
H 	1.292037	0.783660	-1.294365
C 	-2.342685	1.027486	0.526346
H 	-2.650227	1.510200	1.458352
H 	-3.223764	0.869806	-0.102165
C 	-1.296863	1.842103	-0.184198
H 	-1.006216	1.394019	-1.141598
H 	-1.653759	2.863227	-0.360262
C 	1.051105	2.393961	0.118392
H 	1.591204	2.876843	0.938568
H 	0.813687	3.147063	-0.637589
N 	-0.163857	1.883123	0.702288
Fe 	0.200710	0.012586	1.583919
N 	2.017515	0.227719	0.585818
N 	-1.774292	-0.240302	0.914762
H 	-0.431537	2.542961	1.404400
H 	0.681304	-2.550443	1.387541
C 	3.013575	0.738604	1.614049
H 	3.099049	0.004250	2.440728
H 	4.004305	0.873004	1.133563
H 	2.663592	1.711040	2.017533
C 	-2.639014	-0.735410	2.062596
H 	-3.494975	-0.044460	2.203653
H 	-3.017398	-1.751503	1.828384
H 	-2.035130	-0.771246	2.992627
