48
orca.xyz
  O   7.38195549625057     23.10725683775384      6.02718227643938
  Fe  6.29667460409872     22.21185955642833      5.01422544781217
  N   5.91432402525385     20.47699659790209      6.21077960067070
  C   5.85191973459601     19.30491799020686      5.31560899304267
  C   4.83284271844188     19.46230435492793      4.19981692193825
  P   5.12407482296512     21.09910749570147      3.47181623071665
  C   3.63208293379715     22.11230527155524      3.24993425926838
  C   4.14079887376351     23.54224687646365      3.34907317374756
  N   4.90536139962525     23.77731224968509      4.59285575817682
  C   6.02098243198824     20.90649952365806      1.90069618354146
  C   7.45876108231590     20.56404115826750      2.26164244006138
  P   7.99863567252365     21.70567531745462      3.58916883109502
  C   9.50865340428807     21.02906640624092      4.33747539736232
  C   8.47616113523459     23.24153331626699      2.77763872348657
  H   4.95207037588201     18.67120923346074      3.44311002343531
  H   2.93132295377650     21.86757249597454      4.06350285803460
  H   3.79402900916737     19.40692774556418      4.56058923098811
  H   5.94890676760718     21.86717171221846      1.36501142667698
  H   5.54249504351145     20.14481316792907      1.26466625366937
  H   8.13878643201545     20.64041944101476      1.39841578371162
  H   7.54652851947410     19.53522779847186      2.64796002171269
  H   9.36021876645112     23.03656279470295      2.15092250606865
  H   7.65632047402498     23.60606300132944      2.14384419486358
  H   8.72191806143132     23.98704514504666      3.54789327901117
  H   9.86538273078790     21.75158772492122      5.08916004489827
  H   9.28042233000899     20.07325870014870      4.83141113059374
  H   4.80871058964574     23.74342278282005      2.49779834442555
  H   3.30036457717411     24.25442294971424      3.27840991918726
  C   4.00874349166903     23.86557725262753      5.75199422875544
  H   4.60749406967128     24.00329834742472      6.66042830789356
  H   3.32415387869706     24.72477376036143      5.64408109748741
  H   3.41092089883308     22.95291934618435      5.84664717575390
  C   5.65783188691847     25.03563574932939      4.46107758442797
  H   6.22244485166914     25.21696158177891      5.38225534090411
  H   6.36129530526205     24.95945438005915      3.62398922199972
  H   4.96571405810623     25.87420545866065      4.27318546787814
  H   5.63962350389061     18.39612927786292      5.90801552898767
  H   6.85790458392580     19.17975761274104      4.88648829380101
  C   4.65408503755862     20.65702280536923      6.93405656473166
  H   3.82891625566831     20.81403901715202      6.22864737503908
  H   4.42568267749795     19.76995135355102      7.55109102254275
  H   4.73502209054017     21.53045723766240      7.59240352734614
  C   7.01645348830875     20.29875669778151      7.16630934597930
  H   6.87682241007846     19.37061139220892      7.74683722022544
  H   7.96816262142399     20.24847992909543      6.62493164063022
  H   7.05235059799280     21.15463240708612      7.84835121380089
  Br  10.85543682911726     20.72106952715896      3.01874253487782
  Br  2.71908513533594     21.78748652846511      1.60291250188114
