20
orca.xyz
  O   -0.30887556613530     -0.37277407963864     -2.19489960459116
  P   2.27251688317542     -0.54104020970547     -0.04067725060324
  O   -2.24793966456466      0.35816479774422     -0.49322343202290
  O   -0.43904786951507      0.15849195379199      1.65753981681529
  H   2.89025607061397     -1.22524684342038     -1.12107931155562
  H   2.61034453709207     -1.40245218969375      1.03556430634457
  H   -2.72216376919430      0.23795889468598     -1.33845319429848
  H   -1.31306195988011      0.37470910471894      2.04283194865781
  Fe  -0.18154729603679     -0.06332177408575     -0.51916694488514
  H   3.21129803734164      0.50376293813713      0.16494668209004
  P   0.46790068314140      2.35038469713568     -0.72996993969595
  H   0.95074690268030      3.10611822217399      0.36839948607635
  H   1.48197827045104      2.60516480027423     -1.68884376094739
  H   -0.55519407097427      3.20745772145936     -1.21441436659004
  P   -0.51984011057955     -2.48347418764835     -0.10246947897127
  H   0.27012049639230     -3.35052866412540     -0.89852707424152
  H   -0.30855282884256     -3.01284563168410      1.19621805457538
  H   -1.82256423059626     -2.96382043208807     -0.39487074531191
  Br  -3.50566306586735      0.89785622294516      0.76684918404524
  Br  0.80887694750037      0.93245913792404      2.78591014423409
