20
orca.xyz
  O   -0.14392399855763     -0.50949539878279     -2.21722715758290
  P   2.31843584485852     -0.59008527430343     -0.18462740107539
  O   -2.18968002943381      0.39937315564133     -0.55358165460561
  O   -0.21918350351091      0.40755745068251      1.60236827581597
  H   3.12217586524322     -0.21698678198073     -1.29336378615528
  H   2.72645091606884     -1.93926777245229     -0.02203121065767
  H   -2.69919277717965      0.32221771574241     -1.38338040534649
  H   -1.05540599002972      0.75111569144366      1.97939973144648
  Fe  -0.12386684745588     -0.09836893377794     -0.56170650383941
  H   3.02391759271969      0.03191821849313      0.87726944768941
  P   0.50164305641342      2.35389867492256     -0.60118721267431
  H   1.60659439711589      2.78881747124158      0.17540209281296
  H   0.82778823006948      2.92139616001299     -1.86030313121236
  H   -0.48876874816426      3.26954122825180     -0.15742455674301
  P   -0.80620815774252     -2.42519399116513      0.01350450918461
  H   0.18591996861242     -3.40013326709257      0.28614751159943
  H   -1.69935546456132     -2.63651598003199      1.09413159386429
  H   -1.50534189696418     -3.04656975720784     -1.05182439821583
  Br  -3.35337279989734      1.06795020085490      0.73449728839082
  Br  0.42201364243071     -0.79965507162150      2.86177906615841
