23
orca.xyz
  O   0.42724478254060      0.11685620293055     -1.98785439605070
  O   -0.10576953704163     -2.35665634872178     -0.58095421685929
  P   2.33007812200472     -0.76394566387259      0.08825895467600
  O   -2.18259014523922      0.32751195432526     -0.47554270661331
  O   -0.75321316198655     -0.64199509455768      1.66838305759848
  H   -0.32519267341680     -2.92374412036228      0.17423588530639
  H   0.81921147478387     -2.59962934048837     -0.87042511402362
  H   2.72801608505969     -1.48006821521304      1.24781343733904
  H   -2.14085643848677      1.28107041967906     -0.77591511863716
  H   -2.80312112507995     -0.12482392933977     -1.06797851421543
  H   -0.28729632666426     -0.56764369530579      2.51306686006404
  H   -1.67777644172869     -0.40945118783017      1.84713627106091
  Fe  -0.11263338390566     -0.25688531745180     -0.38190769796042
  H   3.40016050451375      0.17606716450192     -0.00260423888350
  P   0.11849728162457      2.21763950943608     -0.01504989120617
  H   -0.33119200863450      2.83607394887638      1.17992701373374
  H   1.32223186012896      2.94512492890000     -0.25111359164365
  N   2.51929827455262     -1.97296120220635     -1.10974645507502
  H   3.37352833009732     -2.53406193512352     -1.04898031232855
  H   2.43622470552222     -1.57912306066812     -2.04997354441144
  N   -1.09455944236868      2.71672435813302     -1.11632601373544
  H   -1.40178356032486      3.69025538526255     -1.03474757666923
  H   -0.81541104756405      2.52748447232144     -2.08234877261234
