54
orca.xyz
  O   6.88158849929726     23.20012088878671      6.27861103366173
  Fe  6.12905731759322     22.29302957077431      5.13547812253214
  N   5.41240541986565     20.54465892696692      6.43208655696734
  C   5.55018313980323     19.42481880914254      5.45822572401548
  C   5.27779613316634     19.71656414483249      3.96268632507418
  N   5.36287066945672     21.17125473101844      3.57563971170213
  C   4.02928542589524     21.79070423731526      3.39567984117014
  C   3.96899509054183     23.31720072486626      3.32633849030911
  N   4.61242781916287     23.88716677614955      4.59103330422722
  C   6.14688272889994     21.31983275170353      2.33130340812147
  C   7.60697877903760     20.96522037730481      2.45472218907482
  N   8.27487292241590     21.68203935553609      3.56171079842081
  C   9.22136791560274     20.79117450899337      4.25553346927993
  C   8.92425003742738     22.94179046628921      3.12793905351222
  H   6.14420374116395     19.26785937835423      3.46330218465177
  H   3.55338051926278     21.40339348348326      2.48170770976161
  H   3.41054432921011     21.46109699083183      4.23169961304219
  H   6.05070465980719     22.35855999079886      2.01091362043012
  H   5.69550345867958     20.69925000072268      1.53776174467420
  H   8.10181162808091     21.17654614415241      1.49366004481283
  H   7.74424838339701     19.89055525254093      2.62300005714318
  F   10.11011266999473     22.73525234247517      2.59049033127874
  F   8.14449886455703     23.50547518508287      2.20763185304369
  F   9.04708408188613     23.74999628281955      4.16634725081928
  F   10.15179881337767     20.32346509993114      3.44542696419697
  F   9.77601634451061     21.42871340372563      5.26546600114786
  F   8.52775771720645     19.74039287496419      4.71185445647823
  H   2.89266777695237     23.52739792397805      3.42642314142902
  C   3.56011649694803     24.13402101645570      5.64221673609908
  F   4.12650938492057     24.22326861516463      6.82268927950683
  F   2.89542407011906     25.23542379917189      5.36288965868080
  F   2.71487554167285     23.11211307030549      5.63472095171231
  C   5.42123147402712     25.13655145880391      4.39996742735439
  F   5.77167587039300     25.63661986608463      5.56017616988235
  F   6.51459754361726     24.76378245416719      3.73562529979285
  F   4.77611181876594     26.04774995230335      3.71001252098869
  H   4.91753213619139     18.58775684202027      5.78655805991783
  H   6.58091745245179     19.07457758905835      5.55501424636942
  C   4.04263160216379     20.53707147951312      7.04183357887906
  F   3.16177558289654     20.40999568744902      6.05358563006587
  F   3.90536637340898     19.50954929364223      7.85357192096896
  F   3.82933409652436     21.65622710049506      7.68854907653322
  C   6.45219542580430     20.40881430119703      7.51938810498760
  F   6.48077311779492     19.18202614276630      7.99199147302664
  F   7.63134481300578     20.67846935786121      6.96820984779336
  F   6.20865373805492     21.26839892216787      8.47783769843059
  C   4.06800240282834     18.99037015993396      3.41039716308574
  H   3.98793848298167     19.12244035000514      2.32163662879612
  H   4.20247301931080     17.91182585093699      3.58411358491371
  H   3.12143713704519     19.28488103453400      3.87865546109899
  C   4.35150341964464     23.95154195864783      1.99761525471233
  H   3.94255751592496     23.30702103380110      1.20633947459222
  H   3.88012395424786     24.93479507250950      1.88534504717930
  H   5.42413789603300     24.07781784181995      1.81841732967025
