19
Ah base
O        0.304321160     -0.145266099     -2.086124455
O       -0.155260840     -2.186059099     -0.144427455
O        0.375461160      2.090183901     -0.247587455
P        2.451254138     -0.392499385      0.104922091
P       -2.247820101      0.282758353     -0.411680254
O       -0.111977840      0.038694901      1.924106545
H       -0.560413840     -2.663601099      0.587686545
H       -0.219969840     -2.752565099     -0.921903455
H        0.605474160      2.614445901      0.527392545
H        0.616350160      2.611800901     -1.021654455
H        3.079543217     -0.198596651     -0.898897894
H        2.686630119     -1.524023436      0.427802054
H       -2.545684850      1.434605668     -0.255077720
H       -2.658087267     -0.020303518     -1.497882056
H        0.479069160     -0.328736099      2.590387545
H       -0.830835840      0.438263901      2.425923545
Fe       0.128146160     -0.055617099     -0.394757455
H        2.929345402      0.317503827      0.945947763
H       -2.887312547     -0.353072955      0.380006527
