48
orca.xyz
  O   7.52816455856491     23.32044440709860      5.93666092190832
  Fe  6.47527379587417     22.30746778273979      4.98234757323920
  P   6.04608461099703     20.51497891404415      6.33770172728939
  C   5.87676715927095     19.10839779155152      5.19380165046787
  C   4.88560826428490     19.48643843754558      4.10626059174689
  P   5.19806037858308     21.19660766206956      3.53751276610469
  C   3.60592556803647     22.00300241589094      3.20031600408066
  C   3.89531307720352     23.49087584561565      3.11360319149970
  P   4.95446498081360     23.92784227112946      4.53098200188747
  C   6.03675125366899     21.02991349656648      1.92724829172654
  C   7.45719849238390     20.57500468810982      2.20836156035504
  P   8.09978566788415     21.63168067590227      3.54576638492709
  C   9.57381232717828     20.85841577733613      4.22316104956417
  C   8.64464558405341     23.15716308116322      2.75099831305012
  H   4.92123203873885     18.79913753831221      3.25588044357875
  H   3.14716043184302     21.60391915182238      2.28997960325242
  H   2.94113120115716     21.78086061764050      4.04053687788942
  H   3.86359810120081     19.46981879622902      4.49625949862857
  H   6.02848259947104     22.01480186020311      1.45046235408397
  H   5.48884718729254     20.33687192841558      1.28070815366505
  H   8.09845771792276     20.63891222037070      1.32369422204376
  H   7.47491375695822     19.53874698064355      2.55865323327047
  H   9.46557131565130     22.93962169842227      2.05968990474494
  H   7.81587589731093     23.60653341648107      2.20059035337456
  H   8.98024099844884     23.84961743705630      3.52671129155181
  H   10.32473092781208     20.73123723575995      3.43666700622953
  H   9.97061979375127     21.50531956936960      5.01020013032832
  H   9.32562896354978     19.88244902641251      4.64606193932309
  H   4.45236096539459     23.73275437491589      2.20309036551781
  H   2.98258606197513     24.09525580935722      3.11505095967087
  C   3.83202603663329     24.14745085257989      5.92446356133366
  H   4.41326521747713     24.42575006814261      6.80511511051744
  H   3.11260206769691     24.93983412578498      5.69416227593709
  H   3.29915910869451     23.21765999528259      6.12818238450254
  C   5.65386397017810     25.54969283570374      4.19811002558611
  H   6.28178448674887     25.83650853302352      5.04509363012112
  H   6.27233492814358     25.50947799642875      3.29867401106610
  H   4.85326921661063     26.28324264057823      4.05945636902905
  H   5.56407282104699     18.20910173037860      5.73469580999467
  H   6.86933584393046     18.91870261860340      4.77640024346576
  C   4.48316932854903     20.55628305434003      7.24207375826671
  H   3.65609372370083     20.71688053305196      6.54865598187888
  H   4.33682236764447     19.60894268033346      7.77088088418265
  H   4.49954390751952     21.37262283997057      7.96662708830032
  C   7.29558767429911     20.04763237234338      7.54556051167358
  H   7.03457256178921     19.09406953724443      8.01503276689599
  H   8.26765975608264     19.96594274244458      7.05511296690931
  H   7.35739551959985     20.82637781506866      8.30906627033058
