17
orca.xyz
O       -2.721647447      1.654539892      1.886679021
Fe      -2.765897490      1.820128690      0.171990405
H       -3.128515063      4.493491695      0.216933904
N       -2.678296415      2.033049041     -2.061034648
H       -2.288011370      2.920550801     -2.376855841
H       -2.110516291      1.322329560     -2.521800567
N       -0.638635398      1.786482474      0.169942150
H       -0.325587211      2.132446453      1.076025245
H       -0.273509958      0.836169040      0.103646717
N       -3.845544566     -0.005022382     -0.096213016
H       -3.620433043     -0.622367628      0.682929198
H       -4.855324845      0.132913381     -0.049074656
H       -0.150433644      2.327665725     -0.541373040
H       -4.247469509      3.777467830      1.147154759
H       -3.675735294     -0.537847105     -0.947743613
H       -3.588546255      1.973921935     -2.516849989
O       -3.773392095      3.703457780      0.248380391
