33
orca.xyz
O        0.782011701      0.205613234      3.127330219
N        0.313596521     -1.893232508      0.729616001
C        1.250181125     -1.886911535     -0.362179022
H        0.787381698     -1.435180237     -1.247206550
H        1.533793685     -2.917864430     -0.597359927
C       -0.999548974     -2.404791407      0.425697432
H       -1.380162833     -2.809643510      1.367743491
H       -0.929109279     -3.212555412     -0.308566083
C        2.443748442     -1.105394735      0.120024760
H        2.899313622     -1.620309546      0.970342169
H        3.191626443     -1.023583484     -0.676827115
C       -1.870215480     -1.283753143     -0.073108278
H       -2.913188347     -1.609957746     -0.153847498
H       -1.536529753     -0.905280864     -1.046119388
C        1.834915539      1.242171214     -0.464136014
H        2.803312442      1.585109872     -0.848208309
H        1.292036560      0.783660237     -1.294365117
C       -2.342685469      1.027485834      0.526346056
H       -2.650226952      1.510199555      1.458352117
H       -3.223763615      0.869805738     -0.102165479
C       -1.296863133      1.842103146     -0.184198402
H       -1.006215629      1.394018635     -1.141598052
H       -1.653759488      2.863227200     -0.360261535
C        1.051105438      2.393961001      0.118391613
H        1.591203589      2.876843427      0.938568432
H        0.813687138      3.147062889     -0.637588561
N       -0.163856675      1.883122691      0.702287958
Fe       0.200709935      0.012586036      1.583918882
N        2.017515086      0.227719291      0.585817615
O       -1.774291799     -0.240301571      0.914761725
H        2.684458139      0.569797973      1.274302010
H       -0.431537468      2.542960599      1.404399721
H        0.681303984     -2.550443190      1.387541028
