21
orca.xyz
O       12.640617000      7.519221000     13.124884000
Fe      13.579570000      7.739604000     11.685579000
O       14.773319000      7.906999000      9.804921000
O       12.229654000      9.149268000     10.932453000
N       15.272760000      8.340407000     12.765481000
N       13.254851000      5.726460000     11.269044000
C       16.471416000      7.907989000     12.764792000
C       12.979750000      5.093321000     10.198667000
H       12.702754000      4.035027000     10.206018000
H       17.207342000      8.227059000     13.508696000
H       15.078208000      8.983163000     13.534599000
H       13.162935000      5.161879000     12.114605000
H       11.259252000      8.951021000     11.181158000
H       14.202563000      8.036536000      8.971982000
H       15.349090000      7.089554000      9.613618000
H       13.008097000      5.606092000      9.235496000
H       16.791274000      7.189296000     12.007553000
C       12.628821366     10.285204476     10.142570898
H       13.653575234     10.594495143     10.377788346
H       12.589972736     10.059440761      9.070829757
H       11.974740278     11.145972666     10.322472884
